/*---------------------------------------------------------------------------*\
  =========                 |
  \\      /  F ield         | OpenFOAM: The Open Source CFD Toolbox
   \\    /   O peration     | Website:  https://openfoam.org
    \\  /    A nd           | Version:  7
     \\/     M anipulation  |
\*---------------------------------------------------------------------------*/
Build  : 7-109ba3c8d53a
Exec   : varRhoInterFoam
Date   : Sep 17 2019
Time   : 10:46:28
Host   : "white"
PID    : 16442
I/O    : uncollated
Case   : /home/wenyuan/OpenFOAM_CODE/varRhoTurbVOF_wenyuan/7_selectable/tutorials/damBreak_varRho_selectable
nProcs : 1
sigFpe : Enabling floating point exception trapping (FOAM_SIGFPE).
fileModificationChecking : Monitoring run-time modified files using timeStampMaster (fileModificationSkew 10)
allowSystemOperations : Allowing user-supplied system call operations

// * * * * * * * * * * * * * * * * * * * * * * * * * * * * * * * * * * * * * //
Create time

Create mesh for time = 0


PIMPLE: No convergence criteria found


PIMPLE: Operating solver in transient mode with 1 outer corrector
PIMPLE: Operating solver in PISO mode


Reading field p_rgh

Reading field U

Reading/calculating face flux field phi

Reading transportProperties

Selecting incompressible transport model Newtonian
Selecting incompressible transport model Newtonian
Variable-density incompressible turbulence modeling
Selecting turbulence model type RAS
Selecting RAS turbulence model kEpsilon
RAS
{
    RASModel        kEpsilon;
    turbulence      on;
    printCoeffs     on;
    Cmu             0.09;
    C1              1.44;
    C2              1.92;
    C3              0;
    sigmak          1;
    sigmaEps        1.3;
}


Reading g

Reading hRef
Calculating field g.h

No MRF models present

No finite volume options present
DICPCG:  Solving for pcorr, Initial residual = 0, Final residual = 0, No Iterations 0
time step continuity errors : sum local = 0, global = 0, cumulative = 0
Courant Number mean: 0 max: 0

Starting time loop

Courant Number mean: 0 max: 0
Interface Courant Number mean: 0 max: 0
deltaT = 0.00119048
Time = 0.00119048

smoothSolver:  Solving for alpha.water, Initial residual = 0, Final residual = 0, No Iterations 0
Phase-1 volume fraction = 0.124769  Min(alpha.water) = 0  Max(alpha.water) = 1
MULES: Correcting alpha.water
MULES: Correcting alpha.water
Phase-1 volume fraction = 0.124769  Min(alpha.water) = 0  Max(alpha.water) = 1
DICPCG:  Solving for p_rgh, Initial residual = 1, Final residual = 0.0400496, No Iterations 13
time step continuity errors : sum local = 0.000173387, global = -4.49524e-09, cumulative = -4.49524e-09
DICPCG:  Solving for p_rgh, Initial residual = 0.00131975, Final residual = 6.47117e-05, No Iterations 23
time step continuity errors : sum local = 9.54242e-06, global = -3.56693e-06, cumulative = -3.57142e-06
DICPCG:  Solving for p_rgh, Initial residual = 0.0001538, Final residual = 8.99856e-08, No Iterations 99
time step continuity errors : sum local = 1.93486e-08, global = 7.25946e-10, cumulative = -3.5707e-06
smoothSolver:  Solving for epsilon, Initial residual = 0.0755506, Final residual = 2.83294e-07, No Iterations 8
smoothSolver:  Solving for k, Initial residual = 1, Final residual = 7.3904e-07, No Iterations 12
ExecutionTime = 0.13 s  ClockTime = 0 s

Courant Number mean: 0.000828812 max: 0.00631869
Interface Courant Number mean: 0 max: 0
deltaT = 0.00139456
Time = 0.00258503

smoothSolver:  Solving for alpha.water, Initial residual = 2.63512e-05, Final residual = 4.64498e-11, No Iterations 1
Phase-1 volume fraction = 0.124769  Min(alpha.water) = 0  Max(alpha.water) = 1
MULES: Correcting alpha.water
MULES: Correcting alpha.water
Phase-1 volume fraction = 0.124769  Min(alpha.water) = -1.28266e-15  Max(alpha.water) = 1
DICPCG:  Solving for p_rgh, Initial residual = 0.000656037, Final residual = 3.24432e-05, No Iterations 15
time step continuity errors : sum local = 7.2095e-06, global = 2.37039e-06, cumulative = -1.20031e-06
DICPCG:  Solving for p_rgh, Initial residual = 6.46115e-05, Final residual = 3.03636e-06, No Iterations 66
time step continuity errors : sum local = 6.73946e-07, global = -1.28784e-07, cumulative = -1.3291e-06
DICPCG:  Solving for p_rgh, Initial residual = 2.42529e-05, Final residual = 8.52175e-08, No Iterations 91
time step continuity errors : sum local = 1.87827e-08, global = -6.6678e-10, cumulative = -1.32976e-06
smoothSolver:  Solving for epsilon, Initial residual = 0.00617385, Final residual = 6.84736e-07, No Iterations 5
smoothSolver:  Solving for k, Initial residual = 0.394237, Final residual = 5.79549e-07, No Iterations 10
ExecutionTime = 0.18 s  ClockTime = 0 s

Courant Number mean: 0.00213167 max: 0.0228491
Interface Courant Number mean: 0 max: 0
deltaT = 0.001635
Time = 0.00422003

smoothSolver:  Solving for alpha.water, Initial residual = 6.40816e-05, Final residual = 9.13668e-10, No Iterations 1
Phase-1 volume fraction = 0.124769  Min(alpha.water) = 0  Max(alpha.water) = 1
MULES: Correcting alpha.water
MULES: Correcting alpha.water
Phase-1 volume fraction = 0.124769  Min(alpha.water) = -9.03844e-14  Max(alpha.water) = 1
DICPCG:  Solving for p_rgh, Initial residual = 0.0011295, Final residual = 5.24119e-05, No Iterations 8
time step continuity errors : sum local = 1.45757e-05, global = 1.15277e-10, cumulative = -1.32965e-06
DICPCG:  Solving for p_rgh, Initial residual = 8.01298e-05, Final residual = 3.13874e-06, No Iterations 26
time step continuity errors : sum local = 8.74452e-07, global = -1.77087e-07, cumulative = -1.50673e-06
DICPCG:  Solving for p_rgh, Initial residual = 2.2138e-05, Final residual = 9.84379e-08, No Iterations 82
time step continuity errors : sum local = 2.76084e-08, global = -2.11481e-10, cumulative = -1.50694e-06
smoothSolver:  Solving for epsilon, Initial residual = 0.00698296, Final residual = 4.21371e-07, No Iterations 6
smoothSolver:  Solving for k, Initial residual = 0.234334, Final residual = 4.12006e-07, No Iterations 11
ExecutionTime = 0.24 s  ClockTime = 0 s

Courant Number mean: 0.00404079 max: 0.0499282
Interface Courant Number mean: 9.64772e-06 max: 0.0499281
deltaT = 0.0019075
Time = 0.00612753

smoothSolver:  Solving for alpha.water, Initial residual = 0.000118421, Final residual = 7.73912e-09, No Iterations 1
Phase-1 volume fraction = 0.124769  Min(alpha.water) = 0  Max(alpha.water) = 1
MULES: Correcting alpha.water
MULES: Correcting alpha.water
Phase-1 volume fraction = 0.124769  Min(alpha.water) = -1.18843e-12  Max(alpha.water) = 1
DICPCG:  Solving for p_rgh, Initial residual = 0.00168488, Final residual = 7.85486e-05, No Iterations 2
time step continuity errors : sum local = 2.73318e-05, global = 1.05154e-07, cumulative = -1.40179e-06
DICPCG:  Solving for p_rgh, Initial residual = 0.000100466, Final residual = 3.94968e-06, No Iterations 26
time step continuity errors : sum local = 1.37397e-06, global = 2.57707e-08, cumulative = -1.37602e-06
DICPCG:  Solving for p_rgh, Initial residual = 3.54213e-05, Final residual = 9.13669e-08, No Iterations 59
time step continuity errors : sum local = 3.21099e-08, global = -2.90492e-09, cumulative = -1.37893e-06
smoothSolver:  Solving for epsilon, Initial residual = 0.00770008, Final residual = 8.91277e-07, No Iterations 6
smoothSolver:  Solving for k, Initial residual = 0.171906, Final residual = 8.47399e-07, No Iterations 11
ExecutionTime = 0.28 s  ClockTime = 0 s

Courant Number mean: 0.00675527 max: 0.0840176
Interface Courant Number mean: 9.31564e-05 max: 0.0840175
deltaT = 0.00219362
Time = 0.00832115

smoothSolver:  Solving for alpha.water, Initial residual = 0.000191449, Final residual = 8.48051e-13, No Iterations 2
Phase-1 volume fraction = 0.124769  Min(alpha.water) = 0  Max(alpha.water) = 1
MULES: Correcting alpha.water
MULES: Correcting alpha.water
Phase-1 volume fraction = 0.124769  Min(alpha.water) = -6.48653e-12  Max(alpha.water) = 1
DICPCG:  Solving for p_rgh, Initial residual = 0.00219637, Final residual = 6.49256e-05, No Iterations 2
time step continuity errors : sum local = 2.74574e-05, global = -5.55765e-08, cumulative = -1.4345e-06
DICPCG:  Solving for p_rgh, Initial residual = 8.51043e-05, Final residual = 3.71057e-06, No Iterations 27
time step continuity errors : sum local = 1.56835e-06, global = -2.62735e-07, cumulative = -1.69724e-06
DICPCG:  Solving for p_rgh, Initial residual = 3.48809e-05, Final residual = 9.04225e-08, No Iterations 88
time step continuity errors : sum local = 3.86635e-08, global = -3.06828e-09, cumulative = -1.7003e-06
smoothSolver:  Solving for epsilon, Initial residual = 0.00841169, Final residual = 6.6228e-07, No Iterations 7
smoothSolver:  Solving for k, Initial residual = 0.137443, Final residual = 7.57504e-07, No Iterations 12
ExecutionTime = 0.33 s  ClockTime = 0 s

Courant Number mean: 0.0103965 max: 0.122426
Interface Courant Number mean: 0.000171508 max: 0.122426
deltaT = 0.00260493
Time = 0.0109261

smoothSolver:  Solving for alpha.water, Initial residual = 0.000299374, Final residual = 1.35957e-11, No Iterations 2
Phase-1 volume fraction = 0.124769  Min(alpha.water) = 0  Max(alpha.water) = 1
MULES: Correcting alpha.water
MULES: Correcting alpha.water
Phase-1 volume fraction = 0.124769  Min(alpha.water) = -2.7105e-11  Max(alpha.water) = 1
DICPCG:  Solving for p_rgh, Initial residual = 0.00275089, Final residual = 6.40075e-05, No Iterations 2
time step continuity errors : sum local = 3.44253e-05, global = 1.41568e-07, cumulative = -1.55874e-06
DICPCG:  Solving for p_rgh, Initial residual = 8.48322e-05, Final residual = 3.65998e-06, No Iterations 28
time step continuity errors : sum local = 1.96668e-06, global = -5.11859e-08, cumulative = -1.60992e-06
DICPCG:  Solving for p_rgh, Initial residual = 3.72568e-05, Final residual = 8.15888e-08, No Iterations 65
time step continuity errors : sum local = 4.44335e-08, global = 1.21817e-09, cumulative = -1.6087e-06
smoothSolver:  Solving for epsilon, Initial residual = 0.00979689, Final residual = 6.85496e-07, No Iterations 8
smoothSolver:  Solving for k, Initial residual = 0.119794, Final residual = 9.71688e-07, No Iterations 13
ExecutionTime = 0.38 s  ClockTime = 0 s

Courant Number mean: 0.0158505 max: 0.173353
Interface Courant Number mean: 0.000291657 max: 0.173353
deltaT = 0.00300569
Time = 0.0139318

smoothSolver:  Solving for alpha.water, Initial residual = 0.000437602, Final residual = 1.02614e-10, No Iterations 2
Phase-1 volume fraction = 0.124769  Min(alpha.water) = -2.04199e-12  Max(alpha.water) = 1
MULES: Correcting alpha.water
MULES: Correcting alpha.water
Phase-1 volume fraction = 0.124769  Min(alpha.water) = -6.55196e-11  Max(alpha.water) = 1
DICPCG:  Solving for p_rgh, Initial residual = 0.00331734, Final residual = 6.6983e-05, No Iterations 2
time step continuity errors : sum local = 4.39269e-05, global = -4.39213e-08, cumulative = -1.65263e-06
DICPCG:  Solving for p_rgh, Initial residual = 9.02393e-05, Final residual = 4.50654e-06, No Iterations 28
time step continuity errors : sum local = 2.95145e-06, global = -4.07015e-07, cumulative = -2.05964e-06
DICPCG:  Solving for p_rgh, Initial residual = 4.06863e-05, Final residual = 9.73937e-08, No Iterations 92
time step continuity errors : sum local = 6.47471e-08, global = -8.05562e-09, cumulative = -2.0677e-06
smoothSolver:  Solving for epsilon, Initial residual = 0.0110192, Final residual = 6.47799e-07, No Iterations 9
smoothSolver:  Solving for k, Initial residual = 0.104951, Final residual = 5.80446e-07, No Iterations 15
ExecutionTime = 0.43 s  ClockTime = 1 s

Courant Number mean: 0.0227079 max: 0.230212
Interface Courant Number mean: 0.000440569 max: 0.230212
deltaT = 0.00360682
Time = 0.0175386

smoothSolver:  Solving for alpha.water, Initial residual = 0.000645288, Final residual = 6.76151e-10, No Iterations 2
Phase-1 volume fraction = 0.124769  Min(alpha.water) = -1.9863e-12  Max(alpha.water) = 1
MULES: Correcting alpha.water
MULES: Correcting alpha.water
Phase-1 volume fraction = 0.124769  Min(alpha.water) = -2.56372e-10  Max(alpha.water) = 1
DICPCG:  Solving for p_rgh, Initial residual = 0.00416977, Final residual = 7.87989e-05, No Iterations 2
time step continuity errors : sum local = 6.61555e-05, global = 1.78777e-07, cumulative = -1.88892e-06
DICPCG:  Solving for p_rgh, Initial residual = 0.000107148, Final residual = 4.33024e-06, No Iterations 29
time step continuity errors : sum local = 3.62797e-06, global = -1.99285e-07, cumulative = -2.0882e-06
DICPCG:  Solving for p_rgh, Initial residual = 4.58856e-05, Final residual = 9.60363e-08, No Iterations 66
time step continuity errors : sum local = 8.19438e-08, global = -8.20587e-09, cumulative = -2.09641e-06
smoothSolver:  Solving for epsilon, Initial residual = 0.0127754, Final residual = 8.37012e-07, No Iterations 10
smoothSolver:  Solving for k, Initial residual = 0.0978097, Final residual = 9.53514e-07, No Iterations 16
ExecutionTime = 0.48 s  ClockTime = 1 s

Courant Number mean: 0.033113 max: 0.298843
Interface Courant Number mean: 0.000680711 max: 0.298843
deltaT = 0.00405768
Time = 0.0215963

smoothSolver:  Solving for alpha.water, Initial residual = 0.000874941, Final residual = 3.08339e-09, No Iterations 2
Phase-1 volume fraction = 0.124769  Min(alpha.water) = 0  Max(alpha.water) = 1
MULES: Correcting alpha.water
MULES: Correcting alpha.water
Phase-1 volume fraction = 0.124769  Min(alpha.water) = -2.67148e-09  Max(alpha.water) = 1
DICPCG:  Solving for p_rgh, Initial residual = 0.00522645, Final residual = 9.31225e-05, No Iterations 2
time step continuity errors : sum local = 9.18014e-05, global = -8.87623e-08, cumulative = -2.18517e-06
DICPCG:  Solving for p_rgh, Initial residual = 0.000126155, Final residual = 5.1502e-06, No Iterations 29
time step continuity errors : sum local = 5.06085e-06, global = -6.0866e-07, cumulative = -2.79383e-06
DICPCG:  Solving for p_rgh, Initial residual = 5.20984e-05, Final residual = 9.9471e-08, No Iterations 97
time step continuity errors : sum local = 9.97701e-08, global = -1.548e-08, cumulative = -2.80931e-06
smoothSolver:  Solving for epsilon, Initial residual = 0.0141062, Final residual = 7.63571e-07, No Iterations 11
smoothSolver:  Solving for k, Initial residual = 0.0871133, Final residual = 9.47972e-07, No Iterations 17
ExecutionTime = 0.53 s  ClockTime = 1 s

Courant Number mean: 0.0442777 max: 0.379006
Interface Courant Number mean: 0.000943908 max: 0.379005
deltaT = 0.00405768
Time = 0.0256539

smoothSolver:  Solving for alpha.water, Initial residual = 0.00103299, Final residual = 8.35899e-09, No Iterations 2
Phase-1 volume fraction = 0.124769  Min(alpha.water) = 0  Max(alpha.water) = 1
MULES: Correcting alpha.water
MULES: Correcting alpha.water
Phase-1 volume fraction = 0.124769  Min(alpha.water) = -1.08999e-08  Max(alpha.water) = 1
DICPCG:  Solving for p_rgh, Initial residual = 0.00629045, Final residual = 0.000103492, No Iterations 2
time step continuity errors : sum local = 0.00010272, global = 7.54742e-08, cumulative = -2.73384e-06
DICPCG:  Solving for p_rgh, Initial residual = 0.000140397, Final residual = 6.56906e-06, No Iterations 28
time step continuity errors : sum local = 6.49088e-06, global = -8.6341e-08, cumulative = -2.82018e-06
DICPCG:  Solving for p_rgh, Initial residual = 5.6669e-05, Final residual = 9.77137e-08, No Iterations 99
time step continuity errors : sum local = 9.86071e-08, global = -1.52435e-08, cumulative = -2.83542e-06
smoothSolver:  Solving for epsilon, Initial residual = 0.0134908, Final residual = 6.0808e-07, No Iterations 11
smoothSolver:  Solving for k, Initial residual = 0.0717118, Final residual = 6.26019e-07, No Iterations 17
ExecutionTime = 0.58 s  ClockTime = 1 s

Courant Number mean: 0.0513126 max: 0.40839
Interface Courant Number mean: 0.00115301 max: 0.40839
deltaT = 0.00405768
Time = 0.0297116

smoothSolver:  Solving for alpha.water, Initial residual = 0.00119072, Final residual = 1.84562e-12, No Iterations 3
Phase-1 volume fraction = 0.124769  Min(alpha.water) = 0  Max(alpha.water) = 1
MULES: Correcting alpha.water
MULES: Correcting alpha.water
Phase-1 volume fraction = 0.124769  Min(alpha.water) = -2.95437e-08  Max(alpha.water) = 1
DICPCG:  Solving for p_rgh, Initial residual = 0.0076315, Final residual = 0.000119736, No Iterations 2
time step continuity errors : sum local = 0.000119363, global = -2.81138e-07, cumulative = -3.11656e-06
DICPCG:  Solving for p_rgh, Initial residual = 0.000161071, Final residual = 6.77853e-06, No Iterations 28
time step continuity errors : sum local = 6.71672e-06, global = -6.007e-07, cumulative = -3.71726e-06
DICPCG:  Solving for p_rgh, Initial residual = 6.20937e-05, Final residual = 9.51042e-08, No Iterations 101
time step continuity errors : sum local = 9.64667e-08, global = -1.47767e-08, cumulative = -3.73204e-06
smoothSolver:  Solving for epsilon, Initial residual = 0.0127216, Final residual = 9.44456e-07, No Iterations 10
smoothSolver:  Solving for k, Initial residual = 0.0608358, Final residual = 7.25136e-07, No Iterations 16
ExecutionTime = 0.64 s  ClockTime = 1 s

Courant Number mean: 0.0583864 max: 0.414738
Interface Courant Number mean: 0.00134371 max: 0.414738
deltaT = 0.00405768
Time = 0.0337693

smoothSolver:  Solving for alpha.water, Initial residual = 0.00134796, Final residual = 7.63365e-12, No Iterations 3
Phase-1 volume fraction = 0.124769  Min(alpha.water) = 0  Max(alpha.water) = 1
MULES: Correcting alpha.water
MULES: Correcting alpha.water
Phase-1 volume fraction = 0.124769  Min(alpha.water) = -6.46826e-08  Max(alpha.water) = 1
DICPCG:  Solving for p_rgh, Initial residual = 0.00911417, Final residual = 0.000141766, No Iterations 2
time step continuity errors : sum local = 0.0001418, global = 6.99653e-08, cumulative = -3.66207e-06
DICPCG:  Solving for p_rgh, Initial residual = 0.000190466, Final residual = 8.241e-06, No Iterations 26
time step continuity errors : sum local = 8.17909e-06, global = -2.68605e-07, cumulative = -3.93068e-06
DICPCG:  Solving for p_rgh, Initial residual = 6.90552e-05, Final residual = 9.16359e-08, No Iterations 104
time step continuity errors : sum local = 9.32978e-08, global = -7.60198e-09, cumulative = -3.93828e-06
smoothSolver:  Solving for epsilon, Initial residual = 0.0118549, Final residual = 7.89334e-07, No Iterations 10
smoothSolver:  Solving for k, Initial residual = 0.0526881, Final residual = 8.78498e-07, No Iterations 15
ExecutionTime = 0.69 s  ClockTime = 1 s

Courant Number mean: 0.0655096 max: 0.441426
Interface Courant Number mean: 0.00158627 max: 0.441426
deltaT = 0.00405768
Time = 0.037827

smoothSolver:  Solving for alpha.water, Initial residual = 0.00150492, Final residual = 5.0986e-11, No Iterations 3
Phase-1 volume fraction = 0.124769  Min(alpha.water) = -1.29374e-09  Max(alpha.water) = 1
MULES: Correcting alpha.water
MULES: Correcting alpha.water
Phase-1 volume fraction = 0.124769  Min(alpha.water) = -1.23425e-07  Max(alpha.water) = 1
DICPCG:  Solving for p_rgh, Initial residual = 0.0107855, Final residual = 0.00017194, No Iterations 2
time step continuity errors : sum local = 0.000172251, global = -3.27176e-07, cumulative = -4.26545e-06
DICPCG:  Solving for p_rgh, Initial residual = 0.000229154, Final residual = 9.02309e-06, No Iterations 26
time step continuity errors : sum local = 8.95251e-06, global = -6.36321e-07, cumulative = -4.90178e-06
DICPCG:  Solving for p_rgh, Initial residual = 7.88038e-05, Final residual = 9.91902e-08, No Iterations 104
time step continuity errors : sum local = 1.01159e-07, global = -8.79776e-09, cumulative = -4.91057e-06
smoothSolver:  Solving for epsilon, Initial residual = 0.0111512, Final residual = 6.73256e-07, No Iterations 10
smoothSolver:  Solving for k, Initial residual = 0.0464081, Final residual = 6.26117e-07, No Iterations 15
ExecutionTime = 0.74 s  ClockTime = 1 s

Courant Number mean: 0.0726663 max: 0.47673
Interface Courant Number mean: 0.00219049 max: 0.461226
deltaT = 0.00405768
Time = 0.0418846

smoothSolver:  Solving for alpha.water, Initial residual = 0.00166156, Final residual = 1.50308e-10, No Iterations 3
Phase-1 volume fraction = 0.124769  Min(alpha.water) = -1.17416e-09  Max(alpha.water) = 1
MULES: Correcting alpha.water
MULES: Correcting alpha.water
Phase-1 volume fraction = 0.124769  Min(alpha.water) = -2.13418e-07  Max(alpha.water) = 1
DICPCG:  Solving for p_rgh, Initial residual = 0.012559, Final residual = 0.000208872, No Iterations 2
time step continuity errors : sum local = 0.000209161, global = -6.60333e-08, cumulative = -4.97661e-06
DICPCG:  Solving for p_rgh, Initial residual = 0.000279555, Final residual = 1.38088e-05, No Iterations 25
time step continuity errors : sum local = 1.36678e-05, global = 4.22031e-07, cumulative = -4.55458e-06
DICPCG:  Solving for p_rgh, Initial residual = 9.40714e-05, Final residual = 9.50752e-08, No Iterations 105
time step continuity errors : sum local = 9.69078e-08, global = -7.36102e-09, cumulative = -4.56194e-06
smoothSolver:  Solving for epsilon, Initial residual = 0.010591, Final residual = 5.87686e-07, No Iterations 10
smoothSolver:  Solving for k, Initial residual = 0.041419, Final residual = 7.83829e-07, No Iterations 14
ExecutionTime = 0.8 s  ClockTime = 1 s

Courant Number mean: 0.0798122 max: 0.519416
Interface Courant Number mean: 0.00255264 max: 0.480846
deltaT = 0.00405768
Time = 0.0459423

smoothSolver:  Solving for alpha.water, Initial residual = 0.00181781, Final residual = 2.82303e-10, No Iterations 3
Phase-1 volume fraction = 0.124769  Min(alpha.water) = -1.0524e-09  Max(alpha.water) = 1
MULES: Correcting alpha.water
MULES: Correcting alpha.water
Phase-1 volume fraction = 0.124769  Min(alpha.water) = -3.41764e-07  Max(alpha.water) = 1
DICPCG:  Solving for p_rgh, Initial residual = 0.0143496, Final residual = 0.000257553, No Iterations 2
time step continuity errors : sum local = 0.000257099, global = -7.11101e-07, cumulative = -5.27304e-06
DICPCG:  Solving for p_rgh, Initial residual = 0.000337698, Final residual = 1.56451e-05, No Iterations 25
time step continuity errors : sum local = 1.54063e-05, global = 1.17614e-07, cumulative = -5.15542e-06
DICPCG:  Solving for p_rgh, Initial residual = 0.000110035, Final residual = 9.05e-08, No Iterations 106
time step continuity errors : sum local = 9.1928e-08, global = -7.18698e-09, cumulative = -5.16261e-06
smoothSolver:  Solving for epsilon, Initial residual = 0.00995843, Final residual = 5.24756e-07, No Iterations 10
smoothSolver:  Solving for k, Initial residual = 0.0374667, Final residual = 5.6203e-07, No Iterations 14
ExecutionTime = 0.85 s  ClockTime = 1 s

Courant Number mean: 0.0869221 max: 0.56329
Interface Courant Number mean: 0.00283354 max: 0.498646
deltaT = 0.00405768
Time = 0.05

smoothSolver:  Solving for alpha.water, Initial residual = 0.00197328, Final residual = 3.97406e-10, No Iterations 3
Phase-1 volume fraction = 0.124769  Min(alpha.water) = -9.32163e-10  Max(alpha.water) = 1
MULES: Correcting alpha.water
MULES: Correcting alpha.water
Phase-1 volume fraction = 0.124769  Min(alpha.water) = -5.09898e-07  Max(alpha.water) = 1
DICPCG:  Solving for p_rgh, Initial residual = 0.015804, Final residual = 0.000318014, No Iterations 2
time step continuity errors : sum local = 0.000316287, global = -4.82344e-07, cumulative = -5.64495e-06
DICPCG:  Solving for p_rgh, Initial residual = 0.000416382, Final residual = 1.84688e-05, No Iterations 25
time step continuity errors : sum local = 1.81153e-05, global = 1.40359e-06, cumulative = -4.24136e-06
DICPCG:  Solving for p_rgh, Initial residual = 0.000134818, Final residual = 9.99465e-08, No Iterations 107
time step continuity errors : sum local = 1.01268e-07, global = -5.80508e-09, cumulative = -4.24717e-06
smoothSolver:  Solving for epsilon, Initial residual = 0.00931108, Final residual = 9.70731e-07, No Iterations 9
smoothSolver:  Solving for k, Initial residual = 0.0342402, Final residual = 8.80673e-07, No Iterations 13
ExecutionTime = 0.95 s  ClockTime = 1 s

Courant Number mean: 0.0940266 max: 0.611449
Interface Courant Number mean: 0.00312224 max: 0.511118
deltaT = 0.00384615
Time = 0.0538462

smoothSolver:  Solving for alpha.water, Initial residual = 0.00201676, Final residual = 4.5714e-10, No Iterations 3
Phase-1 volume fraction = 0.124769  Min(alpha.water) = -8.21585e-10  Max(alpha.water) = 1
MULES: Correcting alpha.water
MULES: Correcting alpha.water
Phase-1 volume fraction = 0.124769  Min(alpha.water) = -6.04743e-07  Max(alpha.water) = 1
DICPCG:  Solving for p_rgh, Initial residual = 0.0179898, Final residual = 0.000407524, No Iterations 2
time step continuity errors : sum local = 0.000384449, global = -1.24664e-06, cumulative = -5.49381e-06
DICPCG:  Solving for p_rgh, Initial residual = 0.000533594, Final residual = 2.51113e-05, No Iterations 25
time step continuity errors : sum local = 2.33236e-05, global = 1.76697e-06, cumulative = -3.72684e-06
DICPCG:  Solving for p_rgh, Initial residual = 0.000168837, Final residual = 9.64556e-08, No Iterations 108
time step continuity errors : sum local = 9.24232e-08, global = -7.63341e-09, cumulative = -3.73447e-06
smoothSolver:  Solving for epsilon, Initial residual = 0.00826939, Final residual = 6.64416e-07, No Iterations 9
smoothSolver:  Solving for k, Initial residual = 0.0301449, Final residual = 5.45292e-07, No Iterations 13
ExecutionTime = 1.01 s  ClockTime = 1 s

Courant Number mean: 0.0956728 max: 0.622701
Interface Courant Number mean: 0.00322473 max: 0.499571
deltaT = 0.00384615
Time = 0.0576923

smoothSolver:  Solving for alpha.water, Initial residual = 0.00215586, Final residual = 8.11325e-10, No Iterations 3
Phase-1 volume fraction = 0.124769  Min(alpha.water) = -7.16169e-10  Max(alpha.water) = 1
MULES: Correcting alpha.water
MULES: Correcting alpha.water
Phase-1 volume fraction = 0.124769  Min(alpha.water) = -9.06498e-07  Max(alpha.water) = 1
DICPCG:  Solving for p_rgh, Initial residual = 0.0240522, Final residual = 0.00119771, No Iterations 1
time step continuity errors : sum local = 0.00114454, global = -1.51466e-06, cumulative = -5.24913e-06
DICPCG:  Solving for p_rgh, Initial residual = 0.00158993, Final residual = 7.12564e-05, No Iterations 19
time step continuity errors : sum local = 6.66352e-05, global = 4.17714e-06, cumulative = -1.07199e-06
DICPCG:  Solving for p_rgh, Initial residual = 0.000499342, Final residual = 9.4026e-08, No Iterations 110
time step continuity errors : sum local = 9.08265e-08, global = -8.1804e-09, cumulative = -1.08017e-06
smoothSolver:  Solving for epsilon, Initial residual = 0.00777808, Final residual = 6.44109e-07, No Iterations 9
smoothSolver:  Solving for k, Initial residual = 0.0282494, Final residual = 5.43076e-07, No Iterations 13
ExecutionTime = 1.06 s  ClockTime = 1 s

Courant Number mean: 0.102131 max: 0.665849
Interface Courant Number mean: 0.0034548 max: 0.511938
deltaT = 0.00352564
Time = 0.0612179

smoothSolver:  Solving for alpha.water, Initial residual = 0.00210273, Final residual = 7.48183e-10, No Iterations 3
Phase-1 volume fraction = 0.124769  Min(alpha.water) = -6.23807e-10  Max(alpha.water) = 1
MULES: Correcting alpha.water
MULES: Correcting alpha.water
Phase-1 volume fraction = 0.124769  Min(alpha.water) = -1.0265e-06  Max(alpha.water) = 1
DICPCG:  Solving for p_rgh, Initial residual = 0.0234784, Final residual = 0.00104128, No Iterations 1
time step continuity errors : sum local = 0.000882262, global = -2.63849e-06, cumulative = -3.71867e-06
DICPCG:  Solving for p_rgh, Initial residual = 0.00140285, Final residual = 6.85192e-05, No Iterations 20
time step continuity errors : sum local = 5.70419e-05, global = 5.68616e-06, cumulative = 1.96749e-06
DICPCG:  Solving for p_rgh, Initial residual = 0.000449631, Final residual = 9.83364e-08, No Iterations 76
time step continuity errors : sum local = 8.42968e-08, global = 1.78675e-08, cumulative = 1.98536e-06
smoothSolver:  Solving for epsilon, Initial residual = 0.00684484, Final residual = 8.19e-07, No Iterations 8
smoothSolver:  Solving for k, Initial residual = 0.0246063, Final residual = 5.67991e-07, No Iterations 12
ExecutionTime = 1.11 s  ClockTime = 1 s

Courant Number mean: 0.0992168 max: 0.646693
Interface Courant Number mean: 0.00329104 max: 0.47934
deltaT = 0.00352564
Time = 0.0647436

smoothSolver:  Solving for alpha.water, Initial residual = 0.00222508, Final residual = 1.03836e-09, No Iterations 3
Phase-1 volume fraction = 0.124769  Min(alpha.water) = -9.84174e-09  Max(alpha.water) = 1
MULES: Correcting alpha.water
MULES: Correcting alpha.water
Phase-1 volume fraction = 0.124769  Min(alpha.water) = -1.4691e-06  Max(alpha.water) = 1.00129
DICPCG:  Solving for p_rgh, Initial residual = 0.0146763, Final residual = 0.000279929, No Iterations 2
time step continuity errors : sum local = 0.000234792, global = -3.40739e-06, cumulative = -1.42203e-06
DICPCG:  Solving for p_rgh, Initial residual = 0.000378869, Final residual = 1.83025e-05, No Iterations 25
time step continuity errors : sum local = 1.51314e-05, global = 1.7245e-06, cumulative = 3.02473e-07
DICPCG:  Solving for p_rgh, Initial residual = 0.000121373, Final residual = 9.82873e-08, No Iterations 108
time step continuity errors : sum local = 8.40371e-08, global = -6.61559e-09, cumulative = 2.95858e-07
smoothSolver:  Solving for epsilon, Initial residual = 0.00654634, Final residual = 8.34928e-07, No Iterations 8
smoothSolver:  Solving for k, Initial residual = 0.0234747, Final residual = 6.1787e-07, No Iterations 12
ExecutionTime = 1.16 s  ClockTime = 1 s

Courant Number mean: 0.104839 max: 0.683897
Interface Courant Number mean: 0.00367863 max: 0.490333
deltaT = 0.00352564
Time = 0.0682692

smoothSolver:  Solving for alpha.water, Initial residual = 0.00234577, Final residual = 1.35672e-09, No Iterations 3
Phase-1 volume fraction = 0.124769  Min(alpha.water) = -5.49789e-08  Max(alpha.water) = 1.0009
MULES: Correcting alpha.water
MULES: Correcting alpha.water
Phase-1 volume fraction = 0.124769  Min(alpha.water) = -2.01064e-06  Max(alpha.water) = 1.0009
DICPCG:  Solving for p_rgh, Initial residual = 0.0135391, Final residual = 0.000368199, No Iterations 2
time step continuity errors : sum local = 0.000309135, global = -1.0981e-06, cumulative = -8.02243e-07
DICPCG:  Solving for p_rgh, Initial residual = 0.000478114, Final residual = 2.36806e-05, No Iterations 25
time step continuity errors : sum local = 1.9629e-05, global = 2.72241e-06, cumulative = 1.92016e-06
DICPCG:  Solving for p_rgh, Initial residual = 0.000150492, Final residual = 8.88542e-08, No Iterations 110
time step continuity errors : sum local = 7.62921e-08, global = -5.42422e-09, cumulative = 1.91474e-06
smoothSolver:  Solving for epsilon, Initial residual = 0.00628971, Final residual = 8.6244e-07, No Iterations 8
smoothSolver:  Solving for k, Initial residual = 0.022504, Final residual = 6.79648e-07, No Iterations 12
ExecutionTime = 1.21 s  ClockTime = 1 s

Courant Number mean: 0.110447 max: 0.721428
Interface Courant Number mean: 0.00390922 max: 0.503046
deltaT = 0.00317308
Time = 0.0714423

smoothSolver:  Solving for alpha.water, Initial residual = 0.00222004, Final residual = 9.39984e-10, No Iterations 3
Phase-1 volume fraction = 0.124769  Min(alpha.water) = -4.82089e-08  Max(alpha.water) = 1.00064
MULES: Correcting alpha.water
MULES: Correcting alpha.water
Phase-1 volume fraction = 0.124769  Min(alpha.water) = -1.96547e-06  Max(alpha.water) = 1.00064
DICPCG:  Solving for p_rgh, Initial residual = 0.0183987, Final residual = 0.000374107, No Iterations 2
time step continuity errors : sum local = 0.000278877, global = -1.52535e-06, cumulative = 3.89386e-07
DICPCG:  Solving for p_rgh, Initial residual = 0.000481703, Final residual = 2.1193e-05, No Iterations 25
time step continuity errors : sum local = 1.55258e-05, global = 2.09853e-06, cumulative = 2.48792e-06
DICPCG:  Solving for p_rgh, Initial residual = 0.000143807, Final residual = 9.47005e-08, No Iterations 109
time step continuity errors : sum local = 7.15766e-08, global = -3.82896e-09, cumulative = 2.48409e-06
smoothSolver:  Solving for epsilon, Initial residual = 0.00556251, Final residual = 4.77843e-07, No Iterations 8
smoothSolver:  Solving for k, Initial residual = 0.0196222, Final residual = 6.86691e-07, No Iterations 11
ExecutionTime = 1.27 s  ClockTime = 1 s

Courant Number mean: 0.104149 max: 0.679609
Interface Courant Number mean: 0.00364937 max: 0.467633
deltaT = 0.00317308
Time = 0.0746154

smoothSolver:  Solving for alpha.water, Initial residual = 0.00232111, Final residual = 1.32743e-09, No Iterations 3
Phase-1 volume fraction = 0.124769  Min(alpha.water) = -4.2029e-08  Max(alpha.water) = 1.00049
MULES: Correcting alpha.water
MULES: Correcting alpha.water
Phase-1 volume fraction = 0.124769  Min(alpha.water) = -2.44115e-06  Max(alpha.water) = 1.00049
DICPCG:  Solving for p_rgh, Initial residual = 0.0204373, Final residual = 0.000379262, No Iterations 2
time step continuity errors : sum local = 0.000280353, global = -1.23842e-06, cumulative = 1.24567e-06
DICPCG:  Solving for p_rgh, Initial residual = 0.000493723, Final residual = 2.02002e-05, No Iterations 25
time step continuity errors : sum local = 1.46452e-05, global = 2.24476e-06, cumulative = 3.49044e-06
DICPCG:  Solving for p_rgh, Initial residual = 0.000155061, Final residual = 8.77791e-08, No Iterations 110
time step continuity errors : sum local = 6.58774e-08, global = -2.11235e-09, cumulative = 3.48832e-06
smoothSolver:  Solving for epsilon, Initial residual = 0.00542051, Final residual = 5.01913e-07, No Iterations 8
smoothSolver:  Solving for k, Initial residual = 0.0190135, Final residual = 7.54157e-07, No Iterations 11
ExecutionTime = 1.32 s  ClockTime = 1 s

Courant Number mean: 0.108852 max: 0.710471
Interface Courant Number mean: 0.00386984 max: 0.48451
deltaT = 0.00317308
Time = 0.0777885

smoothSolver:  Solving for alpha.water, Initial residual = 0.00241933, Final residual = 1.75522e-09, No Iterations 3
Phase-1 volume fraction = 0.124769  Min(alpha.water) = -3.64006e-08  Max(alpha.water) = 1.0004
MULES: Correcting alpha.water
MULES: Correcting alpha.water
Phase-1 volume fraction = 0.124769  Min(alpha.water) = -2.80831e-06  Max(alpha.water) = 1.0004
DICPCG:  Solving for p_rgh, Initial residual = 0.0246395, Final residual = 0.00042054, No Iterations 2
time step continuity errors : sum local = 0.000310026, global = -1.27414e-06, cumulative = 2.21418e-06
DICPCG:  Solving for p_rgh, Initial residual = 0.000549096, Final residual = 2.39085e-05, No Iterations 25
time step continuity errors : sum local = 1.72311e-05, global = 2.86459e-06, cumulative = 5.07877e-06
DICPCG:  Solving for p_rgh, Initial residual = 0.000178214, Final residual = 9.06851e-08, No Iterations 111
time step continuity errors : sum local = 6.76991e-08, global = -4.57097e-10, cumulative = 5.07832e-06
smoothSolver:  Solving for epsilon, Initial residual = 0.00530962, Final residual = 5.31961e-07, No Iterations 8
smoothSolver:  Solving for k, Initial residual = 0.0184817, Final residual = 8.30664e-07, No Iterations 11
ExecutionTime = 1.37 s  ClockTime = 1 s

Courant Number mean: 0.113472 max: 0.74154
Interface Courant Number mean: 0.00410863 max: 0.490679
deltaT = 0.00317308
Time = 0.0809615

smoothSolver:  Solving for alpha.water, Initial residual = 0.00251666, Final residual = 2.11856e-09, No Iterations 3
Phase-1 volume fraction = 0.124769  Min(alpha.water) = -3.12386e-08  Max(alpha.water) = 1.00032
MULES: Correcting alpha.water
MULES: Correcting alpha.water
Phase-1 volume fraction = 0.124769  Min(alpha.water) = -3.44234e-06  Max(alpha.water) = 1.0003
DICPCG:  Solving for p_rgh, Initial residual = 0.0181889, Final residual = 0.000441718, No Iterations 2
time step continuity errors : sum local = 0.000324967, global = -1.58448e-06, cumulative = 3.49384e-06
DICPCG:  Solving for p_rgh, Initial residual = 0.000566212, Final residual = 2.64754e-05, No Iterations 25
time step continuity errors : sum local = 1.91949e-05, global = 3.0819e-06, cumulative = 6.57574e-06
DICPCG:  Solving for p_rgh, Initial residual = 0.000168306, Final residual = 9.48401e-08, No Iterations 111
time step continuity errors : sum local = 7.12561e-08, global = -1.33201e-09, cumulative = 6.57441e-06
smoothSolver:  Solving for epsilon, Initial residual = 0.00521027, Final residual = 5.70654e-07, No Iterations 8
smoothSolver:  Solving for k, Initial residual = 0.0180284, Final residual = 9.24416e-07, No Iterations 11
ExecutionTime = 1.43 s  ClockTime = 2 s

Courant Number mean: 0.118065 max: 0.773403
Interface Courant Number mean: 0.00425111 max: 0.509747
deltaT = 0.00271978
Time = 0.0836813

smoothSolver:  Solving for alpha.water, Initial residual = 0.00224195, Final residual = 1.01072e-09, No Iterations 3
Phase-1 volume fraction = 0.124769  Min(alpha.water) = -2.71661e-08  Max(alpha.water) = 1.00024
MULES: Correcting alpha.water
MULES: Correcting alpha.water
Phase-1 volume fraction = 0.124769  Min(alpha.water) = -2.68785e-06  Max(alpha.water) = 1.00024
DICPCG:  Solving for p_rgh, Initial residual = 0.0161298, Final residual = 0.000342251, No Iterations 2
time step continuity errors : sum local = 0.000207722, global = -1.40227e-06, cumulative = 5.17214e-06
DICPCG:  Solving for p_rgh, Initial residual = 0.000426908, Final residual = 1.82554e-05, No Iterations 27
time step continuity errors : sum local = 1.09086e-05, global = 8.39746e-07, cumulative = 6.01188e-06
DICPCG:  Solving for p_rgh, Initial residual = 0.000125562, Final residual = 9.07786e-08, No Iterations 108
time step continuity errors : sum local = 5.58789e-08, global = -3.73785e-09, cumulative = 6.00815e-06
smoothSolver:  Solving for epsilon, Initial residual = 0.00450389, Final residual = 5.88615e-07, No Iterations 7
smoothSolver:  Solving for k, Initial residual = 0.0152235, Final residual = 7.0838e-07, No Iterations 10
ExecutionTime = 1.48 s  ClockTime = 2 s

Courant Number mean: 0.104782 max: 0.686402
Interface Courant Number mean: 0.00371089 max: 0.438111
deltaT = 0.00271978
Time = 0.0864011

smoothSolver:  Solving for alpha.water, Initial residual = 0.00231907, Final residual = 1.12624e-09, No Iterations 3
Phase-1 volume fraction = 0.124769  Min(alpha.water) = -2.34739e-08  Max(alpha.water) = 1.00019
MULES: Correcting alpha.water
MULES: Correcting alpha.water
Phase-1 volume fraction = 0.124769  Min(alpha.water) = -3.39724e-06  Max(alpha.water) = 1.00019
DICPCG:  Solving for p_rgh, Initial residual = 0.0169309, Final residual = 0.000354488, No Iterations 2
time step continuity errors : sum local = 0.000214212, global = -6.37648e-07, cumulative = 5.3705e-06
DICPCG:  Solving for p_rgh, Initial residual = 0.000450523, Final residual = 1.99945e-05, No Iterations 25
time step continuity errors : sum local = 1.18858e-05, global = 1.85193e-06, cumulative = 7.22243e-06
DICPCG:  Solving for p_rgh, Initial residual = 0.000128982, Final residual = 8.94814e-08, No Iterations 110
time step continuity errors : sum local = 5.50298e-08, global = -8.26059e-10, cumulative = 7.2216e-06
smoothSolver:  Solving for epsilon, Initial residual = 0.00445096, Final residual = 6.25065e-07, No Iterations 7
smoothSolver:  Solving for k, Initial residual = 0.0149758, Final residual = 7.69769e-07, No Iterations 10
ExecutionTime = 1.54 s  ClockTime = 2 s

Courant Number mean: 0.108358 max: 0.710735
Interface Courant Number mean: 0.0038539 max: 0.450763
deltaT = 0.00271978
Time = 0.0891209

smoothSolver:  Solving for alpha.water, Initial residual = 0.00239561, Final residual = 1.44422e-09, No Iterations 3
Phase-1 volume fraction = 0.124769  Min(alpha.water) = -7.52718e-08  Max(alpha.water) = 1.00014
MULES: Correcting alpha.water
MULES: Correcting alpha.water
Phase-1 volume fraction = 0.124769  Min(alpha.water) = -4.14079e-06  Max(alpha.water) = 1.00014
DICPCG:  Solving for p_rgh, Initial residual = 0.0173734, Final residual = 0.000380171, No Iterations 2
time step continuity errors : sum local = 0.000228984, global = -9.18574e-07, cumulative = 6.30303e-06
DICPCG:  Solving for p_rgh, Initial residual = 0.000490802, Final residual = 2.38546e-05, No Iterations 25
time step continuity errors : sum local = 1.41334e-05, global = 2.52341e-06, cumulative = 8.82644e-06
DICPCG:  Solving for p_rgh, Initial residual = 0.000150742, Final residual = 8.20765e-08, No Iterations 111
time step continuity errors : sum local = 5.0317e-08, global = -2.57853e-10, cumulative = 8.82618e-06
smoothSolver:  Solving for epsilon, Initial residual = 0.00442971, Final residual = 6.65155e-07, No Iterations 7
smoothSolver:  Solving for k, Initial residual = 0.0147481, Final residual = 8.33728e-07, No Iterations 10
ExecutionTime = 1.59 s  ClockTime = 2 s

Courant Number mean: 0.111896 max: 0.735556
Interface Courant Number mean: 0.00404202 max: 0.465966
deltaT = 0.00271978
Time = 0.0918407

smoothSolver:  Solving for alpha.water, Initial residual = 0.00246975, Final residual = 1.75863e-09, No Iterations 3
Phase-1 volume fraction = 0.124769  Min(alpha.water) = -6.63015e-08  Max(alpha.water) = 1.00011
MULES: Correcting alpha.water
MULES: Correcting alpha.water
Phase-1 volume fraction = 0.124769  Min(alpha.water) = -4.96563e-06  Max(alpha.water) = 1.00011
DICPCG:  Solving for p_rgh, Initial residual = 0.020155, Final residual = 0.000483901, No Iterations 2
time step continuity errors : sum local = 0.000293231, global = -1.30098e-06, cumulative = 7.5252e-06
DICPCG:  Solving for p_rgh, Initial residual = 0.000635229, Final residual = 2.62634e-05, No Iterations 26
time step continuity errors : sum local = 1.56155e-05, global = 1.65074e-06, cumulative = 9.17594e-06
DICPCG:  Solving for p_rgh, Initial residual = 0.00018548, Final residual = 9.91964e-08, No Iterations 82
time step continuity errors : sum local = 6.10248e-08, global = 1.27761e-08, cumulative = 9.18872e-06
smoothSolver:  Solving for epsilon, Initial residual = 0.00440872, Final residual = 7.10575e-07, No Iterations 7
smoothSolver:  Solving for k, Initial residual = 0.0145413, Final residual = 9.04293e-07, No Iterations 10
ExecutionTime = 1.64 s  ClockTime = 2 s

Courant Number mean: 0.115381 max: 0.760806
Interface Courant Number mean: 0.00437402 max: 0.474992
deltaT = 0.00271978
Time = 0.0945604

smoothSolver:  Solving for alpha.water, Initial residual = 0.0025411, Final residual = 2.0035e-09, No Iterations 3
Phase-1 volume fraction = 0.124769  Min(alpha.water) = -5.79896e-08  Max(alpha.water) = 1.00009
MULES: Correcting alpha.water
MULES: Correcting alpha.water
Phase-1 volume fraction = 0.124769  Min(alpha.water) = -5.90018e-06  Max(alpha.water) = 1.00009
DICPCG:  Solving for p_rgh, Initial residual = 0.0251973, Final residual = 0.000483481, No Iterations 2
time step continuity errors : sum local = 0.000297412, global = -1.01242e-06, cumulative = 8.17629e-06
DICPCG:  Solving for p_rgh, Initial residual = 0.000607855, Final residual = 2.50978e-05, No Iterations 26
time step continuity errors : sum local = 1.51108e-05, global = 2.12357e-06, cumulative = 1.02999e-05
DICPCG:  Solving for p_rgh, Initial residual = 0.000181078, Final residual = 8.88384e-08, No Iterations 111
time step continuity errors : sum local = 5.53498e-08, global = -1.01077e-09, cumulative = 1.02988e-05
smoothSolver:  Solving for epsilon, Initial residual = 0.00439772, Final residual = 7.62751e-07, No Iterations 7
smoothSolver:  Solving for k, Initial residual = 0.0143737, Final residual = 9.84287e-07, No Iterations 10
ExecutionTime = 1.69 s  ClockTime = 2 s

Courant Number mean: 0.118811 max: 0.788243
Interface Courant Number mean: 0.00427917 max: 0.480612
deltaT = 0.00271978
Time = 0.0972802

smoothSolver:  Solving for alpha.water, Initial residual = 0.00261533, Final residual = 2.24134e-09, No Iterations 3
Phase-1 volume fraction = 0.124769  Min(alpha.water) = -5.03064e-08  Max(alpha.water) = 1.00007
MULES: Correcting alpha.water
MULES: Correcting alpha.water
Phase-1 volume fraction = 0.124769  Min(alpha.water) = -6.24232e-06  Max(alpha.water) = 1.00007
DICPCG:  Solving for p_rgh, Initial residual = 0.0166096, Final residual = 0.000379426, No Iterations 2
time step continuity errors : sum local = 0.0002319, global = -1.27304e-06, cumulative = 9.02581e-06
DICPCG:  Solving for p_rgh, Initial residual = 0.000484933, Final residual = 1.98668e-05, No Iterations 26
time step continuity errors : sum local = 1.19515e-05, global = 1.19991e-06, cumulative = 1.02257e-05
DICPCG:  Solving for p_rgh, Initial residual = 0.000138722, Final residual = 9.5188e-08, No Iterations 109
time step continuity errors : sum local = 5.92764e-08, global = -2.11813e-09, cumulative = 1.02236e-05
smoothSolver:  Solving for epsilon, Initial residual = 0.00438767, Final residual = 8.10602e-07, No Iterations 7
smoothSolver:  Solving for k, Initial residual = 0.0142264, Final residual = 4.97246e-07, No Iterations 11
ExecutionTime = 1.74 s  ClockTime = 2 s

Courant Number mean: 0.122229 max: 0.818821
Interface Courant Number mean: 0.00444355 max: 0.492017
deltaT = 0.00271978
Time = 0.1

smoothSolver:  Solving for alpha.water, Initial residual = 0.00268912, Final residual = 2.52884e-09, No Iterations 3
Phase-1 volume fraction = 0.124769  Min(alpha.water) = -4.3307e-08  Max(alpha.water) = 1.00006
MULES: Correcting alpha.water
MULES: Correcting alpha.water
Phase-1 volume fraction = 0.124769  Min(alpha.water) = -6.50554e-06  Max(alpha.water) = 1.00006
DICPCG:  Solving for p_rgh, Initial residual = 0.0157302, Final residual = 0.000397608, No Iterations 2
time step continuity errors : sum local = 0.000242593, global = -6.96142e-07, cumulative = 9.52746e-06
DICPCG:  Solving for p_rgh, Initial residual = 0.000509086, Final residual = 2.2524e-05, No Iterations 26
time step continuity errors : sum local = 1.35474e-05, global = 1.87826e-06, cumulative = 1.14057e-05
DICPCG:  Solving for p_rgh, Initial residual = 0.000151772, Final residual = 9.43447e-08, No Iterations 110
time step continuity errors : sum local = 5.87378e-08, global = -1.39748e-09, cumulative = 1.14043e-05
smoothSolver:  Solving for epsilon, Initial residual = 0.0043798, Final residual = 8.59736e-07, No Iterations 7
smoothSolver:  Solving for k, Initial residual = 0.0140812, Final residual = 5.31929e-07, No Iterations 11
ExecutionTime = 1.85 s  ClockTime = 2 s

Courant Number mean: 0.125621 max: 0.849971
Interface Courant Number mean: 0.00469475 max: 0.503735
deltaT = 0.00263158
Time = 0.102632

smoothSolver:  Solving for alpha.water, Initial residual = 0.00267223, Final residual = 2.48255e-09, No Iterations 3
Phase-1 volume fraction = 0.124769  Min(alpha.water) = -3.71398e-08  Max(alpha.water) = 1.00005
MULES: Correcting alpha.water
MULES: Correcting alpha.water
Phase-1 volume fraction = 0.124769  Min(alpha.water) = -6.86812e-06  Max(alpha.water) = 1.00005
DICPCG:  Solving for p_rgh, Initial residual = 0.0225288, Final residual = 0.000631635, No Iterations 2
time step continuity errors : sum local = 0.000376808, global = -1.06494e-06, cumulative = 1.03394e-05
DICPCG:  Solving for p_rgh, Initial residual = 0.000808744, Final residual = 3.60845e-05, No Iterations 27
time step continuity errors : sum local = 2.10569e-05, global = 2.01993e-06, cumulative = 1.23593e-05
DICPCG:  Solving for p_rgh, Initial residual = 0.000226599, Final residual = 9.70619e-08, No Iterations 112
time step continuity errors : sum local = 5.8509e-08, global = -3.3869e-11, cumulative = 1.23593e-05
smoothSolver:  Solving for epsilon, Initial residual = 0.00427769, Final residual = 7.52824e-07, No Iterations 7
smoothSolver:  Solving for k, Initial residual = 0.0135047, Final residual = 9.55266e-07, No Iterations 10
ExecutionTime = 1.9 s  ClockTime = 2 s

Courant Number mean: 0.124722 max: 0.852108
Interface Courant Number mean: 0.00461531 max: 0.498943
deltaT = 0.00263158
Time = 0.105263

smoothSolver:  Solving for alpha.water, Initial residual = 0.00273793, Final residual = 2.78667e-09, No Iterations 3
Phase-1 volume fraction = 0.124769  Min(alpha.water) = -2.79957e-07  Max(alpha.water) = 1.00005
MULES: Correcting alpha.water
MULES: Correcting alpha.water
Phase-1 volume fraction = 0.124769  Min(alpha.water) = -7.87967e-06  Max(alpha.water) = 1.00054
DICPCG:  Solving for p_rgh, Initial residual = 0.0248037, Final residual = 0.000492276, No Iterations 2
time step continuity errors : sum local = 0.00029302, global = -1.29265e-06, cumulative = 1.10666e-05
DICPCG:  Solving for p_rgh, Initial residual = 0.000635487, Final residual = 2.72472e-05, No Iterations 26
time step continuity errors : sum local = 1.58395e-05, global = 2.18059e-06, cumulative = 1.32472e-05
DICPCG:  Solving for p_rgh, Initial residual = 0.000193979, Final residual = 9.01491e-08, No Iterations 110
time step continuity errors : sum local = 5.42063e-08, global = -1.19883e-09, cumulative = 1.3246e-05
smoothSolver:  Solving for epsilon, Initial residual = 0.00429712, Final residual = 8.00862e-07, No Iterations 7
smoothSolver:  Solving for k, Initial residual = 0.013401, Final residual = 4.7626e-07, No Iterations 11
ExecutionTime = 1.96 s  ClockTime = 2 s

Courant Number mean: 0.127837 max: 0.882331
Interface Courant Number mean: 0.00473308 max: 0.494626
deltaT = 0.00263158
Time = 0.107895

smoothSolver:  Solving for alpha.water, Initial residual = 0.00280553, Final residual = 3.11533e-09, No Iterations 3
Phase-1 volume fraction = 0.124769  Min(alpha.water) = -2.37682e-07  Max(alpha.water) = 1.00004
MULES: Correcting alpha.water
MULES: Correcting alpha.water
Phase-1 volume fraction = 0.124769  Min(alpha.water) = -9.02734e-06  Max(alpha.water) = 1.00004
DICPCG:  Solving for p_rgh, Initial residual = 0.0225274, Final residual = 0.000472422, No Iterations 2
time step continuity errors : sum local = 0.000279903, global = -1.21523e-06, cumulative = 1.20308e-05
DICPCG:  Solving for p_rgh, Initial residual = 0.000599482, Final residual = 2.32048e-05, No Iterations 26
time step continuity errors : sum local = 1.34811e-05, global = 1.97162e-06, cumulative = 1.40024e-05
DICPCG:  Solving for p_rgh, Initial residual = 0.000171013, Final residual = 9.5249e-08, No Iterations 85
time step continuity errors : sum local = 5.72361e-08, global = 1.09411e-08, cumulative = 1.40134e-05
smoothSolver:  Solving for epsilon, Initial residual = 0.00431521, Final residual = 8.46654e-07, No Iterations 7
smoothSolver:  Solving for k, Initial residual = 0.0133173, Final residual = 5.06717e-07, No Iterations 11
ExecutionTime = 2 s  ClockTime = 2 s

Courant Number mean: 0.130898 max: 0.913198
Interface Courant Number mean: 0.00485236 max: 0.505395
deltaT = 0.00247678
Time = 0.110372

smoothSolver:  Solving for alpha.water, Initial residual = 0.00270425, Final residual = 2.37679e-09, No Iterations 3
Phase-1 volume fraction = 0.124769  Min(alpha.water) = -2.0248e-07  Max(alpha.water) = 1.00004
MULES: Correcting alpha.water
MULES: Correcting alpha.water
Phase-1 volume fraction = 0.124769  Min(alpha.water) = -9.0738e-06  Max(alpha.water) = 1.00004
DICPCG:  Solving for p_rgh, Initial residual = 0.0130444, Final residual = 0.000399851, No Iterations 2
time step continuity errors : sum local = 0.000217249, global = -9.57619e-07, cumulative = 1.30558e-05
DICPCG:  Solving for p_rgh, Initial residual = 0.000506756, Final residual = 2.36046e-05, No Iterations 26
time step continuity errors : sum local = 1.26714e-05, global = 1.94941e-06, cumulative = 1.50052e-05
DICPCG:  Solving for p_rgh, Initial residual = 0.000145967, Final residual = 9.06408e-08, No Iterations 109
time step continuity errors : sum local = 5.01956e-08, global = -8.84175e-10, cumulative = 1.50043e-05
smoothSolver:  Solving for epsilon, Initial residual = 0.00411761, Final residual = 6.2318e-07, No Iterations 7
smoothSolver:  Solving for k, Initial residual = 0.0124666, Final residual = 7.43888e-07, No Iterations 10
ExecutionTime = 2.06 s  ClockTime = 2 s

Courant Number mean: 0.125957 max: 0.887432
Interface Courant Number mean: 0.00476218 max: 0.486238
deltaT = 0.00247678
Time = 0.112848

smoothSolver:  Solving for alpha.water, Initial residual = 0.0027694, Final residual = 2.67068e-09, No Iterations 3
Phase-1 volume fraction = 0.124769  Min(alpha.water) = -1.71501e-07  Max(alpha.water) = 1.00003
MULES: Correcting alpha.water
MULES: Correcting alpha.water
Phase-1 volume fraction = 0.124769  Min(alpha.water) = -9.45111e-06  Max(alpha.water) = 1.00016
DICPCG:  Solving for p_rgh, Initial residual = 0.0211347, Final residual = 0.000576753, No Iterations 2
time step continuity errors : sum local = 0.000319662, global = -9.96315e-07, cumulative = 1.4008e-05
DICPCG:  Solving for p_rgh, Initial residual = 0.000736019, Final residual = 3.64246e-05, No Iterations 27
time step continuity errors : sum local = 1.9788e-05, global = 2.11347e-06, cumulative = 1.61214e-05
DICPCG:  Solving for p_rgh, Initial residual = 0.000209497, Final residual = 8.40499e-08, No Iterations 112
time step continuity errors : sum local = 4.71504e-08, global = -3.80554e-10, cumulative = 1.61211e-05
smoothSolver:  Solving for epsilon, Initial residual = 0.00414912, Final residual = 6.5851e-07, No Iterations 7
smoothSolver:  Solving for k, Initial residual = 0.0123964, Final residual = 7.87262e-07, No Iterations 10
ExecutionTime = 2.11 s  ClockTime = 2 s

Courant Number mean: 0.128689 max: 0.916028
Interface Courant Number mean: 0.00474069 max: 0.497202
deltaT = 0.00247678
Time = 0.115325

smoothSolver:  Solving for alpha.water, Initial residual = 0.00283396, Final residual = 2.98031e-09, No Iterations 3
Phase-1 volume fraction = 0.124769  Min(alpha.water) = -1.4426e-07  Max(alpha.water) = 1.00003
MULES: Correcting alpha.water
MULES: Correcting alpha.water
Phase-1 volume fraction = 0.124769  Min(alpha.water) = -8.80778e-06  Max(alpha.water) = 1.00006
DICPCG:  Solving for p_rgh, Initial residual = 0.0216873, Final residual = 0.000471673, No Iterations 2
time step continuity errors : sum local = 0.000260872, global = -1.22297e-06, cumulative = 1.48981e-05
DICPCG:  Solving for p_rgh, Initial residual = 0.000620419, Final residual = 2.76739e-05, No Iterations 26
time step continuity errors : sum local = 1.49879e-05, global = 2.13193e-06, cumulative = 1.703e-05
DICPCG:  Solving for p_rgh, Initial residual = 0.000180873, Final residual = 8.86051e-08, No Iterations 110
time step continuity errors : sum local = 4.95542e-08, global = -8.81378e-10, cumulative = 1.70291e-05
smoothSolver:  Solving for epsilon, Initial residual = 0.00418475, Final residual = 6.94981e-07, No Iterations 7
smoothSolver:  Solving for k, Initial residual = 0.0123423, Final residual = 8.32085e-07, No Iterations 10
ExecutionTime = 2.16 s  ClockTime = 2 s

Courant Number mean: 0.131379 max: 0.945251
Interface Courant Number mean: 0.00492103 max: 0.486086
deltaT = 0.00247678
Time = 0.117802

smoothSolver:  Solving for alpha.water, Initial residual = 0.0028942, Final residual = 3.33051e-09, No Iterations 3
Phase-1 volume fraction = 0.124769  Min(alpha.water) = -1.20677e-07  Max(alpha.water) = 1.00003
MULES: Correcting alpha.water
MULES: Correcting alpha.water
Phase-1 volume fraction = 0.124769  Min(alpha.water) = -7.65404e-06  Max(alpha.water) = 1.00003
DICPCG:  Solving for p_rgh, Initial residual = 0.0221339, Final residual = 0.000492755, No Iterations 2
time step continuity errors : sum local = 0.000271876, global = -1.04716e-06, cumulative = 1.5982e-05
DICPCG:  Solving for p_rgh, Initial residual = 0.000630849, Final residual = 2.95818e-05, No Iterations 26
time step continuity errors : sum local = 1.60007e-05, global = 2.51062e-06, cumulative = 1.84926e-05
DICPCG:  Solving for p_rgh, Initial residual = 0.000188707, Final residual = 8.99287e-08, No Iterations 110
time step continuity errors : sum local = 5.02131e-08, global = -1.04188e-09, cumulative = 1.84915e-05
smoothSolver:  Solving for epsilon, Initial residual = 0.00422594, Final residual = 7.3234e-07, No Iterations 7
smoothSolver:  Solving for k, Initial residual = 0.0122941, Final residual = 8.75736e-07, No Iterations 10
ExecutionTime = 2.21 s  ClockTime = 2 s

Courant Number mean: 0.133996 max: 0.975098
Interface Courant Number mean: 0.00496983 max: 0.494861
deltaT = 0.00247678
Time = 0.120279

smoothSolver:  Solving for alpha.water, Initial residual = 0.00295615, Final residual = 3.63926e-09, No Iterations 3
Phase-1 volume fraction = 0.124769  Min(alpha.water) = -1.00147e-07  Max(alpha.water) = 1.00003
MULES: Correcting alpha.water
MULES: Correcting alpha.water
Phase-1 volume fraction = 0.124769  Min(alpha.water) = -6.07383e-06  Max(alpha.water) = 1.00003
DICPCG:  Solving for p_rgh, Initial residual = 0.0183638, Final residual = 0.000540533, No Iterations 2
time step continuity errors : sum local = 0.000299391, global = -1.21521e-06, cumulative = 1.72763e-05
DICPCG:  Solving for p_rgh, Initial residual = 0.000678021, Final residual = 3.11933e-05, No Iterations 27
time step continuity errors : sum local = 1.70063e-05, global = 1.84243e-06, cumulative = 1.91188e-05
DICPCG:  Solving for p_rgh, Initial residual = 0.000184694, Final residual = 9.86189e-08, No Iterations 110
time step continuity errors : sum local = 5.54754e-08, global = -4.41738e-10, cumulative = 1.91183e-05
smoothSolver:  Solving for epsilon, Initial residual = 0.00425731, Final residual = 7.72092e-07, No Iterations 7
smoothSolver:  Solving for k, Initial residual = 0.0122433, Final residual = 9.20708e-07, No Iterations 10
ExecutionTime = 2.26 s  ClockTime = 2 s

Courant Number mean: 0.136578 max: 1.00566
Interface Courant Number mean: 0.00514786 max: 0.50618
deltaT = 0.00228626
Time = 0.122565

smoothSolver:  Solving for alpha.water, Initial residual = 0.00278653, Final residual = 2.48637e-09, No Iterations 3
Phase-1 volume fraction = 0.124769  Min(alpha.water) = -8.37533e-08  Max(alpha.water) = 1.00002
MULES: Correcting alpha.water
MULES: Correcting alpha.water
Phase-1 volume fraction = 0.124769  Min(alpha.water) = -3.78139e-06  Max(alpha.water) = 1.00002
DICPCG:  Solving for p_rgh, Initial residual = 0.017774, Final residual = 0.000456825, No Iterations 2
time step continuity errors : sum local = 0.000228344, global = -9.36444e-07, cumulative = 1.81819e-05
DICPCG:  Solving for p_rgh, Initial residual = 0.000586058, Final residual = 2.56558e-05, No Iterations 28
time step continuity errors : sum local = 1.26146e-05, global = 1.06342e-06, cumulative = 1.92453e-05
DICPCG:  Solving for p_rgh, Initial residual = 0.000164096, Final residual = 9.82537e-08, No Iterations 110
time step continuity errors : sum local = 4.96913e-08, global = -1.24733e-09, cumulative = 1.9244e-05
smoothSolver:  Solving for epsilon, Initial residual = 0.0040177, Final residual = 5.00665e-07, No Iterations 7
smoothSolver:  Solving for k, Initial residual = 0.011273, Final residual = 5.39924e-07, No Iterations 10
ExecutionTime = 2.31 s  ClockTime = 2 s

Courant Number mean: 0.128303 max: 0.954839
Interface Courant Number mean: 0.00481335 max: 0.477778
deltaT = 0.00228626
Time = 0.124851

smoothSolver:  Solving for alpha.water, Initial residual = 0.00284124, Final residual = 2.69453e-09, No Iterations 3
Phase-1 volume fraction = 0.124769  Min(alpha.water) = -6.97414e-08  Max(alpha.water) = 1.00002
MULES: Correcting alpha.water
MULES: Correcting alpha.water
Phase-1 volume fraction = 0.124769  Min(alpha.water) = -5.37401e-06  Max(alpha.water) = 1.00002
DICPCG:  Solving for p_rgh, Initial residual = 0.0188605, Final residual = 0.000452508, No Iterations 2
time step continuity errors : sum local = 0.000225808, global = -6.64157e-07, cumulative = 1.85799e-05
DICPCG:  Solving for p_rgh, Initial residual = 0.000583265, Final residual = 2.53294e-05, No Iterations 27
time step continuity errors : sum local = 1.24133e-05, global = 1.15927e-06, cumulative = 1.97392e-05
DICPCG:  Solving for p_rgh, Initial residual = 0.000162687, Final residual = 8.59738e-08, No Iterations 110
time step continuity errors : sum local = 4.34058e-08, global = -1.23277e-09, cumulative = 1.97379e-05
smoothSolver:  Solving for epsilon, Initial residual = 0.00406684, Final residual = 5.25653e-07, No Iterations 7
smoothSolver:  Solving for k, Initial residual = 0.0112467, Final residual = 5.66093e-07, No Iterations 10
ExecutionTime = 2.36 s  ClockTime = 2 s

Courant Number mean: 0.130517 max: 0.982255
Interface Courant Number mean: 0.00486696 max: 0.488358
deltaT = 0.00228626
Time = 0.127137

smoothSolver:  Solving for alpha.water, Initial residual = 0.00289377, Final residual = 2.9809e-09, No Iterations 3
Phase-1 volume fraction = 0.124769  Min(alpha.water) = -5.78302e-08  Max(alpha.water) = 1.00002
MULES: Correcting alpha.water
MULES: Correcting alpha.water
Phase-1 volume fraction = 0.124769  Min(alpha.water) = -5.54081e-06  Max(alpha.water) = 1.00002
DICPCG:  Solving for p_rgh, Initial residual = 0.0197454, Final residual = 0.000475381, No Iterations 2
time step continuity errors : sum local = 0.000237431, global = -6.08256e-07, cumulative = 1.91297e-05
DICPCG:  Solving for p_rgh, Initial residual = 0.000615327, Final residual = 2.79824e-05, No Iterations 27
time step continuity errors : sum local = 1.37339e-05, global = 1.69196e-06, cumulative = 2.08216e-05
DICPCG:  Solving for p_rgh, Initial residual = 0.000179972, Final residual = 9.0471e-08, No Iterations 110
time step continuity errors : sum local = 4.57218e-08, global = -1.40901e-09, cumulative = 2.08202e-05
smoothSolver:  Solving for epsilon, Initial residual = 0.00410885, Final residual = 5.52995e-07, No Iterations 7
smoothSolver:  Solving for k, Initial residual = 0.0112224, Final residual = 5.92878e-07, No Iterations 10
ExecutionTime = 2.41 s  ClockTime = 3 s

Courant Number mean: 0.132673 max: 1.01032
Interface Courant Number mean: 0.00508934 max: 0.478657
deltaT = 0.00207842
Time = 0.129216

smoothSolver:  Solving for alpha.water, Initial residual = 0.00267625, Final residual = 1.86216e-09, No Iterations 3
Phase-1 volume fraction = 0.124769  Min(alpha.water) = -4.84999e-08  Max(alpha.water) = 1.00002
MULES: Correcting alpha.water
MULES: Correcting alpha.water
Phase-1 volume fraction = 0.124769  Min(alpha.water) = -4.10631e-06  Max(alpha.water) = 1.00002
DICPCG:  Solving for p_rgh, Initial residual = 0.0222757, Final residual = 0.000591634, No Iterations 2
time step continuity errors : sum local = 0.000262297, global = -7.97147e-07, cumulative = 2.00231e-05
DICPCG:  Solving for p_rgh, Initial residual = 0.000735933, Final residual = 3.33325e-05, No Iterations 28
time step continuity errors : sum local = 1.44832e-05, global = 1.3614e-06, cumulative = 2.13845e-05
DICPCG:  Solving for p_rgh, Initial residual = 0.000199114, Final residual = 9.14447e-08, No Iterations 111
time step continuity errors : sum local = 4.07533e-08, global = -1.03203e-09, cumulative = 2.13834e-05
smoothSolver:  Solving for epsilon, Initial residual = 0.00382746, Final residual = 9.36609e-07, No Iterations 6
smoothSolver:  Solving for k, Initial residual = 0.0101925, Final residual = 7.27383e-07, No Iterations 9
ExecutionTime = 2.46 s  ClockTime = 3 s

Courant Number mean: 0.122403 max: 0.942093
Interface Courant Number mean: 0.00453805 max: 0.436157
deltaT = 0.00207842
Time = 0.131294

smoothSolver:  Solving for alpha.water, Initial residual = 0.00272139, Final residual = 1.97633e-09, No Iterations 3
Phase-1 volume fraction = 0.124769  Min(alpha.water) = -4.05263e-08  Max(alpha.water) = 1.00002
MULES: Correcting alpha.water
MULES: Correcting alpha.water
Phase-1 volume fraction = 0.124769  Min(alpha.water) = -3.6288e-06  Max(alpha.water) = 1.00002
DICPCG:  Solving for p_rgh, Initial residual = 0.0158423, Final residual = 0.000408696, No Iterations 2
time step continuity errors : sum local = 0.000179996, global = -7.57042e-07, cumulative = 2.06264e-05
DICPCG:  Solving for p_rgh, Initial residual = 0.000508909, Final residual = 2.11132e-05, No Iterations 28
time step continuity errors : sum local = 9.16792e-06, global = 8.17934e-07, cumulative = 2.14443e-05
DICPCG:  Solving for p_rgh, Initial residual = 0.000142607, Final residual = 8.59381e-08, No Iterations 110
time step continuity errors : sum local = 3.83435e-08, global = -9.76175e-10, cumulative = 2.14434e-05
smoothSolver:  Solving for epsilon, Initial residual = 0.00387306, Final residual = 9.7903e-07, No Iterations 6
smoothSolver:  Solving for k, Initial residual = 0.0101911, Final residual = 7.58552e-07, No Iterations 9
ExecutionTime = 2.52 s  ClockTime = 3 s

Courant Number mean: 0.124174 max: 0.96644
Interface Courant Number mean: 0.00452863 max: 0.455669
deltaT = 0.00207842
Time = 0.133373

smoothSolver:  Solving for alpha.water, Initial residual = 0.00276503, Final residual = 2.13602e-09, No Iterations 3
Phase-1 volume fraction = 0.124769  Min(alpha.water) = -3.3785e-08  Max(alpha.water) = 1.00002
MULES: Correcting alpha.water
MULES: Correcting alpha.water
Phase-1 volume fraction = 0.124769  Min(alpha.water) = -3.14078e-06  Max(alpha.water) = 1.00002
DICPCG:  Solving for p_rgh, Initial residual = 0.0163985, Final residual = 0.000413298, No Iterations 2
time step continuity errors : sum local = 0.000182134, global = -4.42699e-07, cumulative = 2.10007e-05
DICPCG:  Solving for p_rgh, Initial residual = 0.000525224, Final residual = 2.55439e-05, No Iterations 27
time step continuity errors : sum local = 1.10833e-05, global = 1.25044e-06, cumulative = 2.22511e-05
DICPCG:  Solving for p_rgh, Initial residual = 0.000145253, Final residual = 9.72733e-08, No Iterations 109
time step continuity errors : sum local = 4.33477e-08, global = -1.14704e-09, cumulative = 2.225e-05
smoothSolver:  Solving for epsilon, Initial residual = 0.00392163, Final residual = 3.52658e-07, No Iterations 7
smoothSolver:  Solving for k, Initial residual = 0.0101896, Final residual = 7.90671e-07, No Iterations 9
ExecutionTime = 2.57 s  ClockTime = 3 s

Courant Number mean: 0.125927 max: 0.993799
Interface Courant Number mean: 0.0046137 max: 0.456023
deltaT = 0.00207842
Time = 0.135451

smoothSolver:  Solving for alpha.water, Initial residual = 0.00281047, Final residual = 2.32605e-09, No Iterations 3
Phase-1 volume fraction = 0.124769  Min(alpha.water) = -2.81001e-08  Max(alpha.water) = 1.00002
MULES: Correcting alpha.water
MULES: Correcting alpha.water
Phase-1 volume fraction = 0.124769  Min(alpha.water) = -3.30507e-06  Max(alpha.water) = 1.00002
DICPCG:  Solving for p_rgh, Initial residual = 0.0166678, Final residual = 0.000441773, No Iterations 2
time step continuity errors : sum local = 0.000195244, global = -5.88296e-07, cumulative = 2.16617e-05
DICPCG:  Solving for p_rgh, Initial residual = 0.000572017, Final residual = 2.021e-05, No Iterations 28
time step continuity errors : sum local = 8.79092e-06, global = 9.29216e-07, cumulative = 2.25909e-05
DICPCG:  Solving for p_rgh, Initial residual = 0.000156853, Final residual = 7.51818e-08, No Iterations 110
time step continuity errors : sum local = 3.35734e-08, global = -1.08109e-09, cumulative = 2.25898e-05
smoothSolver:  Solving for epsilon, Initial residual = 0.00396805, Final residual = 3.70349e-07, No Iterations 7
smoothSolver:  Solving for k, Initial residual = 0.0101917, Final residual = 8.23737e-07, No Iterations 9
ExecutionTime = 2.62 s  ClockTime = 3 s

Courant Number mean: 0.127654 max: 1.02677
Interface Courant Number mean: 0.00475352 max: 0.451847
deltaT = 0.00181861
Time = 0.13727

smoothSolver:  Solving for alpha.water, Initial residual = 0.00249523, Final residual = 1.14602e-09, No Iterations 3
Phase-1 volume fraction = 0.124769  Min(alpha.water) = -3.55685e-08  Max(alpha.water) = 1.00001
MULES: Correcting alpha.water
MULES: Correcting alpha.water
Phase-1 volume fraction = 0.124769  Min(alpha.water) = -2.10173e-06  Max(alpha.water) = 1.00001
DICPCG:  Solving for p_rgh, Initial residual = 0.0206099, Final residual = 0.000537489, No Iterations 2
time step continuity errors : sum local = 0.000197949, global = -4.29646e-07, cumulative = 2.21602e-05
DICPCG:  Solving for p_rgh, Initial residual = 0.000668019, Final residual = 3.04487e-05, No Iterations 28
time step continuity errors : sum local = 1.10079e-05, global = 1.30476e-06, cumulative = 2.34649e-05
DICPCG:  Solving for p_rgh, Initial residual = 0.000178872, Final residual = 9.30658e-08, No Iterations 110
time step continuity errors : sum local = 3.43771e-08, global = -1.08706e-09, cumulative = 2.34638e-05
smoothSolver:  Solving for epsilon, Initial residual = 0.00357086, Final residual = 5.16639e-07, No Iterations 6
smoothSolver:  Solving for k, Initial residual = 0.00893196, Final residual = 8.46574e-07, No Iterations 8
ExecutionTime = 2.67 s  ClockTime = 3 s

Courant Number mean: 0.11302 max: 0.923661
Interface Courant Number mean: 0.00406278 max: 0.416225
deltaT = 0.00181861
Time = 0.139088

smoothSolver:  Solving for alpha.water, Initial residual = 0.00252843, Final residual = 1.21717e-09, No Iterations 3
Phase-1 volume fraction = 0.124769  Min(alpha.water) = -3.28925e-08  Max(alpha.water) = 1.00001
MULES: Correcting alpha.water
MULES: Correcting alpha.water
Phase-1 volume fraction = 0.124769  Min(alpha.water) = -2.22349e-06  Max(alpha.water) = 1.00001
DICPCG:  Solving for p_rgh, Initial residual = 0.0181811, Final residual = 0.000404206, No Iterations 2
time step continuity errors : sum local = 0.000148195, global = -6.42081e-07, cumulative = 2.28217e-05
DICPCG:  Solving for p_rgh, Initial residual = 0.000503284, Final residual = 2.03482e-05, No Iterations 28
time step continuity errors : sum local = 7.34332e-06, global = 6.75087e-07, cumulative = 2.34968e-05
DICPCG:  Solving for p_rgh, Initial residual = 0.000136573, Final residual = 8.19989e-08, No Iterations 109
time step continuity errors : sum local = 3.03008e-08, global = -1.13062e-09, cumulative = 2.34957e-05
smoothSolver:  Solving for epsilon, Initial residual = 0.00361177, Final residual = 5.39291e-07, No Iterations 6
smoothSolver:  Solving for k, Initial residual = 0.00895111, Final residual = 8.78234e-07, No Iterations 8
ExecutionTime = 2.72 s  ClockTime = 3 s

Courant Number mean: 0.114329 max: 0.951135
Interface Courant Number mean: 0.00408241 max: 0.401229
deltaT = 0.00181861
Time = 0.140907

smoothSolver:  Solving for alpha.water, Initial residual = 0.00255982, Final residual = 1.29698e-09, No Iterations 3
Phase-1 volume fraction = 0.124769  Min(alpha.water) = -3.02923e-08  Max(alpha.water) = 1.00001
MULES: Correcting alpha.water
MULES: Correcting alpha.water
Phase-1 volume fraction = 0.124769  Min(alpha.water) = -2.48184e-06  Max(alpha.water) = 1.00001
DICPCG:  Solving for p_rgh, Initial residual = 0.01375, Final residual = 0.000359456, No Iterations 2
time step continuity errors : sum local = 0.000131474, global = -3.13135e-07, cumulative = 2.31826e-05
DICPCG:  Solving for p_rgh, Initial residual = 0.000455537, Final residual = 1.76695e-05, No Iterations 28
time step continuity errors : sum local = 6.3794e-06, global = 8.59842e-07, cumulative = 2.40424e-05
DICPCG:  Solving for p_rgh, Initial residual = 0.000118778, Final residual = 9.50666e-08, No Iterations 108
time step continuity errors : sum local = 3.51312e-08, global = -1.22026e-09, cumulative = 2.40412e-05
smoothSolver:  Solving for epsilon, Initial residual = 0.00365924, Final residual = 5.63117e-07, No Iterations 6
smoothSolver:  Solving for k, Initial residual = 0.00897602, Final residual = 9.10969e-07, No Iterations 8
ExecutionTime = 2.78 s  ClockTime = 3 s

Courant Number mean: 0.115622 max: 0.980945
Interface Courant Number mean: 0.00421667 max: 0.422018
deltaT = 0.00181861
Time = 0.142726

smoothSolver:  Solving for alpha.water, Initial residual = 0.00259551, Final residual = 1.38168e-09, No Iterations 3
Phase-1 volume fraction = 0.124769  Min(alpha.water) = -2.77805e-08  Max(alpha.water) = 1.00001
MULES: Correcting alpha.water
MULES: Correcting alpha.water
Phase-1 volume fraction = 0.124769  Min(alpha.water) = -2.72284e-06  Max(alpha.water) = 1.00001
DICPCG:  Solving for p_rgh, Initial residual = 0.0127207, Final residual = 0.000366808, No Iterations 2
time step continuity errors : sum local = 0.000134202, global = -3.89348e-07, cumulative = 2.36518e-05
DICPCG:  Solving for p_rgh, Initial residual = 0.000465714, Final residual = 1.78057e-05, No Iterations 28
time step continuity errors : sum local = 6.4418e-06, global = 7.30913e-07, cumulative = 2.43828e-05
DICPCG:  Solving for p_rgh, Initial residual = 0.0001233, Final residual = 9.16409e-08, No Iterations 108
time step continuity errors : sum local = 3.39201e-08, global = -1.12397e-09, cumulative = 2.43816e-05
smoothSolver:  Solving for epsilon, Initial residual = 0.00370344, Final residual = 5.88254e-07, No Iterations 6
smoothSolver:  Solving for k, Initial residual = 0.00900221, Final residual = 9.44523e-07, No Iterations 8
ExecutionTime = 2.83 s  ClockTime = 3 s

Courant Number mean: 0.11691 max: 1.01297
Interface Courant Number mean: 0.00418086 max: 0.437773
deltaT = 0.00145489
Time = 0.14418

smoothSolver:  Solving for alpha.water, Initial residual = 0.00210364, Final residual = 3.87338e-10, No Iterations 3
Phase-1 volume fraction = 0.124769  Min(alpha.water) = -2.5809e-08  Max(alpha.water) = 1.00001
MULES: Correcting alpha.water
MULES: Correcting alpha.water
Phase-1 volume fraction = 0.124769  Min(alpha.water) = -1.25527e-06  Max(alpha.water) = 1.00001
DICPCG:  Solving for p_rgh, Initial residual = 0.0160221, Final residual = 0.000433517, No Iterations 2
time step continuity errors : sum local = 0.000116189, global = -2.45768e-07, cumulative = 2.41359e-05
DICPCG:  Solving for p_rgh, Initial residual = 0.0005305, Final residual = 2.18874e-05, No Iterations 29
time step continuity errors : sum local = 5.78068e-06, global = 6.88279e-07, cumulative = 2.48241e-05
DICPCG:  Solving for p_rgh, Initial residual = 0.000128835, Final residual = 9.60587e-08, No Iterations 107
time step continuity errors : sum local = 2.57887e-08, global = -1.31602e-09, cumulative = 2.48228e-05
smoothSolver:  Solving for epsilon, Initial residual = 0.00306815, Final residual = 5.92035e-07, No Iterations 5
smoothSolver:  Solving for k, Initial residual = 0.00722193, Final residual = 6.03384e-07, No Iterations 7
ExecutionTime = 2.88 s  ClockTime = 3 s

Courant Number mean: 0.0943726 max: 0.830313
Interface Courant Number mean: 0.00331051 max: 0.330056
deltaT = 0.00145489
Time = 0.145635

smoothSolver:  Solving for alpha.water, Initial residual = 0.00212457, Final residual = 4.09619e-10, No Iterations 3
Phase-1 volume fraction = 0.124769  Min(alpha.water) = -2.38359e-08  Max(alpha.water) = 1.00001
MULES: Correcting alpha.water
MULES: Correcting alpha.water
Phase-1 volume fraction = 0.124769  Min(alpha.water) = -1.3894e-06  Max(alpha.water) = 1.00001
DICPCG:  Solving for p_rgh, Initial residual = 0.0162833, Final residual = 0.000412421, No Iterations 2
time step continuity errors : sum local = 0.000110183, global = -3.15606e-07, cumulative = 2.45072e-05
DICPCG:  Solving for p_rgh, Initial residual = 0.000508752, Final residual = 2.4229e-05, No Iterations 28
time step continuity errors : sum local = 6.3806e-06, global = 7.22286e-07, cumulative = 2.52295e-05
DICPCG:  Solving for p_rgh, Initial residual = 0.000131432, Final residual = 8.54505e-08, No Iterations 108
time step continuity errors : sum local = 2.29453e-08, global = -8.17285e-10, cumulative = 2.52287e-05
smoothSolver:  Solving for epsilon, Initial residual = 0.00309949, Final residual = 6.1466e-07, No Iterations 5
smoothSolver:  Solving for k, Initial residual = 0.00725756, Final residual = 6.22731e-07, No Iterations 7
ExecutionTime = 2.93 s  ClockTime = 3 s

Courant Number mean: 0.0952058 max: 0.852412
Interface Courant Number mean: 0.00331344 max: 0.331004
deltaT = 0.00145489
Time = 0.14709

smoothSolver:  Solving for alpha.water, Initial residual = 0.00214401, Final residual = 4.30855e-10, No Iterations 3
Phase-1 volume fraction = 0.124769  Min(alpha.water) = -7.93549e-08  Max(alpha.water) = 1.00001
MULES: Correcting alpha.water
MULES: Correcting alpha.water
Phase-1 volume fraction = 0.124769  Min(alpha.water) = -1.51472e-06  Max(alpha.water) = 1.00001
DICPCG:  Solving for p_rgh, Initial residual = 0.0152214, Final residual = 0.000326162, No Iterations 2
time step continuity errors : sum local = 8.70179e-05, global = -2.85529e-07, cumulative = 2.49432e-05
DICPCG:  Solving for p_rgh, Initial residual = 0.000409043, Final residual = 1.47093e-05, No Iterations 28
time step continuity errors : sum local = 3.87179e-06, global = 6.28985e-07, cumulative = 2.55721e-05
DICPCG:  Solving for p_rgh, Initial residual = 0.000102041, Final residual = 9.40694e-08, No Iterations 105
time step continuity errors : sum local = 2.52401e-08, global = -1.59247e-09, cumulative = 2.55705e-05
smoothSolver:  Solving for epsilon, Initial residual = 0.00313217, Final residual = 6.3798e-07, No Iterations 5
smoothSolver:  Solving for k, Initial residual = 0.00729085, Final residual = 6.42616e-07, No Iterations 7
ExecutionTime = 2.99 s  ClockTime = 3 s

Courant Number mean: 0.0960243 max: 0.87659
Interface Courant Number mean: 0.00323788 max: 0.357808
deltaT = 0.00145489
Time = 0.148545

smoothSolver:  Solving for alpha.water, Initial residual = 0.00216842, Final residual = 4.55238e-10, No Iterations 3
Phase-1 volume fraction = 0.124769  Min(alpha.water) = -7.42177e-08  Max(alpha.water) = 1.00001
MULES: Correcting alpha.water
MULES: Correcting alpha.water
Phase-1 volume fraction = 0.124769  Min(alpha.water) = -1.62969e-06  Max(alpha.water) = 1.00001
DICPCG:  Solving for p_rgh, Initial residual = 0.0136806, Final residual = 0.000318808, No Iterations 2
time step continuity errors : sum local = 8.4876e-05, global = -2.4541e-07, cumulative = 2.53251e-05
DICPCG:  Solving for p_rgh, Initial residual = 0.000397941, Final residual = 1.97445e-05, No Iterations 25
time step continuity errors : sum local = 5.19784e-06, global = 1.00208e-06, cumulative = 2.63272e-05
DICPCG:  Solving for p_rgh, Initial residual = 9.93332e-05, Final residual = 8.14106e-08, No Iterations 79
time step continuity errors : sum local = 2.18343e-08, global = 4.87864e-09, cumulative = 2.63321e-05
smoothSolver:  Solving for epsilon, Initial residual = 0.00316974, Final residual = 6.61708e-07, No Iterations 5
smoothSolver:  Solving for k, Initial residual = 0.00732449, Final residual = 6.62812e-07, No Iterations 7
ExecutionTime = 3.03 s  ClockTime = 3 s

Courant Number mean: 0.0968329 max: 0.902813
Interface Courant Number mean: 0.00334393 max: 0.361394
deltaT = 0.00145489
Time = 0.15

smoothSolver:  Solving for alpha.water, Initial residual = 0.0021901, Final residual = 4.8546e-10, No Iterations 3
Phase-1 volume fraction = 0.124769  Min(alpha.water) = -6.91838e-08  Max(alpha.water) = 1.00001
MULES: Correcting alpha.water
MULES: Correcting alpha.water
Phase-1 volume fraction = 0.124769  Min(alpha.water) = -1.72188e-06  Max(alpha.water) = 1.00003
DICPCG:  Solving for p_rgh, Initial residual = 0.0104874, Final residual = 0.00028642, No Iterations 2
time step continuity errors : sum local = 7.62771e-05, global = -3.57077e-07, cumulative = 2.5975e-05
DICPCG:  Solving for p_rgh, Initial residual = 0.000358791, Final residual = 1.44295e-05, No Iterations 28
time step continuity errors : sum local = 3.80851e-06, global = 5.58452e-07, cumulative = 2.65335e-05
DICPCG:  Solving for p_rgh, Initial residual = 8.83905e-05, Final residual = 9.89237e-08, No Iterations 103
time step continuity errors : sum local = 2.65897e-08, global = -1.39885e-09, cumulative = 2.65321e-05
smoothSolver:  Solving for epsilon, Initial residual = 0.00320535, Final residual = 6.86078e-07, No Iterations 5
smoothSolver:  Solving for k, Initial residual = 0.00735908, Final residual = 6.83464e-07, No Iterations 7
ExecutionTime = 3.13 s  ClockTime = 3 s

Courant Number mean: 0.0976443 max: 0.931251
Interface Courant Number mean: 0.00339942 max: 0.342102
deltaT = 0.0015625
Time = 0.151563

smoothSolver:  Solving for alpha.water, Initial residual = 0.00237023, Final residual = 7.86027e-10, No Iterations 3
Phase-1 volume fraction = 0.124769  Min(alpha.water) = -6.39671e-08  Max(alpha.water) = 1.00001
MULES: Correcting alpha.water
[...]
time step continuity errors : sum local = 9.1578e-06, global = 2.59232e-07, cumulative = 9.35713e-05
DICPCG:  Solving for p_rgh, Initial residual = 0.000350689, Final residual = 9.91665e-08, No Iterations 148
time step continuity errors : sum local = 1.38335e-08, global = -1.49148e-10, cumulative = 9.35712e-05
smoothSolver:  Solving for epsilon, Initial residual = 0.00151472, Final residual = 1.22887e-07, No Iterations 3
smoothSolver:  Solving for k, Initial residual = 0.00172551, Final residual = 2.0663e-07, No Iterations 4
ExecutionTime = 26.13 s  ClockTime = 26 s

Courant Number mean: 0.140496 max: 0.947532
Interface Courant Number mean: 0.00651999 max: 0.378502
deltaT = 0.000993202
Time = 0.487088

smoothSolver:  Solving for alpha.water, Initial residual = 0.00233148, Final residual = 3.62816e-10, No Iterations 3
Phase-1 volume fraction = 0.124769  Min(alpha.water) = -1.08146e-07  Max(alpha.water) = 1
MULES: Correcting alpha.water
MULES: Correcting alpha.water
Phase-1 volume fraction = 0.124769  Min(alpha.water) = -1.40416e-05  Max(alpha.water) = 1.00001
DICPCG:  Solving for p_rgh, Initial residual = 0.0265745, Final residual = 0.00118658, No Iterations 2
time step continuity errors : sum local = 0.00016627, global = 4.90187e-08, cumulative = 9.36202e-05
DICPCG:  Solving for p_rgh, Initial residual = 0.00143357, Final residual = 6.57626e-05, No Iterations 9
time step continuity errors : sum local = 9.17284e-06, global = 4.54344e-07, cumulative = 9.40746e-05
DICPCG:  Solving for p_rgh, Initial residual = 0.000358274, Final residual = 9.83859e-08, No Iterations 147
time step continuity errors : sum local = 1.3716e-08, global = 4.18154e-12, cumulative = 9.40746e-05
smoothSolver:  Solving for epsilon, Initial residual = 0.00144964, Final residual = 1.21691e-07, No Iterations 3
smoothSolver:  Solving for k, Initial residual = 0.00170668, Final residual = 2.04265e-07, No Iterations 4
ExecutionTime = 26.18 s  ClockTime = 26 s

Courant Number mean: 0.140034 max: 0.939829
Interface Courant Number mean: 0.0066335 max: 0.378045
deltaT = 0.000993202
Time = 0.488082

smoothSolver:  Solving for alpha.water, Initial residual = 0.00232504, Final residual = 3.55236e-10, No Iterations 3
Phase-1 volume fraction = 0.124769  Min(alpha.water) = -9.50961e-08  Max(alpha.water) = 1
MULES: Correcting alpha.water
MULES: Correcting alpha.water
Phase-1 volume fraction = 0.124769  Min(alpha.water) = -6.88638e-06  Max(alpha.water) = 1.00001
DICPCG:  Solving for p_rgh, Initial residual = 0.0273121, Final residual = 0.00116984, No Iterations 2
time step continuity errors : sum local = 0.000164229, global = -4.30823e-08, cumulative = 9.40315e-05
DICPCG:  Solving for p_rgh, Initial residual = 0.00141487, Final residual = 6.46075e-05, No Iterations 9
time step continuity errors : sum local = 9.03256e-06, global = 2.642e-07, cumulative = 9.42957e-05
DICPCG:  Solving for p_rgh, Initial residual = 0.000355462, Final residual = 8.35459e-08, No Iterations 141
time step continuity errors : sum local = 1.16735e-08, global = -1.55429e-10, cumulative = 9.42955e-05
smoothSolver:  Solving for epsilon, Initial residual = 0.00139027, Final residual = 1.20005e-07, No Iterations 3
smoothSolver:  Solving for k, Initial residual = 0.0016868, Final residual = 2.01824e-07, No Iterations 4
ExecutionTime = 26.23 s  ClockTime = 26 s

Courant Number mean: 0.139593 max: 0.937082
Interface Courant Number mean: 0.00662523 max: 0.372206
deltaT = 0.000993202
Time = 0.489075

smoothSolver:  Solving for alpha.water, Initial residual = 0.0023119, Final residual = 3.61658e-10, No Iterations 3
Phase-1 volume fraction = 0.124769  Min(alpha.water) = -8.32741e-08  Max(alpha.water) = 1
MULES: Correcting alpha.water
MULES: Correcting alpha.water
Phase-1 volume fraction = 0.124769  Min(alpha.water) = -3.68655e-06  Max(alpha.water) = 1.00001
DICPCG:  Solving for p_rgh, Initial residual = 0.0263268, Final residual = 0.00117163, No Iterations 2
time step continuity errors : sum local = 0.000164903, global = 4.98267e-08, cumulative = 9.43453e-05
DICPCG:  Solving for p_rgh, Initial residual = 0.00140961, Final residual = 7.04071e-05, No Iterations 9
time step continuity errors : sum local = 9.87331e-06, global = 4.87427e-07, cumulative = 9.48328e-05
DICPCG:  Solving for p_rgh, Initial residual = 0.000357711, Final residual = 9.36977e-08, No Iterations 147
time step continuity errors : sum local = 1.31308e-08, global = 1.92491e-11, cumulative = 9.48328e-05
smoothSolver:  Solving for epsilon, Initial residual = 0.00133552, Final residual = 1.18467e-07, No Iterations 3
smoothSolver:  Solving for k, Initial residual = 0.00167014, Final residual = 1.99278e-07, No Iterations 4
ExecutionTime = 26.28 s  ClockTime = 26 s

Courant Number mean: 0.139173 max: 0.930355
Interface Courant Number mean: 0.00664086 max: 0.39928
deltaT = 0.000993202
Time = 0.490068

smoothSolver:  Solving for alpha.water, Initial residual = 0.00229809, Final residual = 3.61425e-10, No Iterations 3
Phase-1 volume fraction = 0.124769  Min(alpha.water) = -7.25282e-08  Max(alpha.water) = 1
MULES: Correcting alpha.water
MULES: Correcting alpha.water
Phase-1 volume fraction = 0.124769  Min(alpha.water) = -3.81528e-06  Max(alpha.water) = 1.00001
DICPCG:  Solving for p_rgh, Initial residual = 0.0258269, Final residual = 0.00113395, No Iterations 2
time step continuity errors : sum local = 0.0001598, global = -4.45628e-08, cumulative = 9.47882e-05
DICPCG:  Solving for p_rgh, Initial residual = 0.00137533, Final residual = 5.75075e-05, No Iterations 10
time step continuity errors : sum local = 8.06641e-06, global = 3.99416e-07, cumulative = 9.51876e-05
DICPCG:  Solving for p_rgh, Initial residual = 0.000345265, Final residual = 8.54194e-08, No Iterations 146
time step continuity errors : sum local = 1.19735e-08, global = -8.4071e-11, cumulative = 9.51876e-05
smoothSolver:  Solving for epsilon, Initial residual = 0.00128714, Final residual = 1.18582e-07, No Iterations 3
smoothSolver:  Solving for k, Initial residual = 0.00165384, Final residual = 1.96723e-07, No Iterations 4
ExecutionTime = 26.33 s  ClockTime = 26 s

Courant Number mean: 0.138792 max: 0.920131
Interface Courant Number mean: 0.00657587 max: 0.387589
deltaT = 0.000993202
Time = 0.491061

smoothSolver:  Solving for alpha.water, Initial residual = 0.00228949, Final residual = 3.57809e-10, No Iterations 3
Phase-1 volume fraction = 0.124769  Min(alpha.water) = -6.28275e-08  Max(alpha.water) = 1
MULES: Correcting alpha.water
MULES: Correcting alpha.water
Phase-1 volume fraction = 0.124769  Min(alpha.water) = -3.91973e-06  Max(alpha.water) = 1.00001
DICPCG:  Solving for p_rgh, Initial residual = 0.0259302, Final residual = 0.00110578, No Iterations 2
time step continuity errors : sum local = 0.000155954, global = 3.10494e-08, cumulative = 9.52186e-05
DICPCG:  Solving for p_rgh, Initial residual = 0.00134942, Final residual = 6.35749e-05, No Iterations 9
time step continuity errors : sum local = 8.92789e-06, global = 4.64263e-07, cumulative = 9.56829e-05
DICPCG:  Solving for p_rgh, Initial residual = 0.00033712, Final residual = 7.98881e-08, No Iterations 147
time step continuity errors : sum local = 1.12111e-08, global = 1.587e-11, cumulative = 9.56829e-05
smoothSolver:  Solving for epsilon, Initial residual = 0.00124574, Final residual = 1.18672e-07, No Iterations 3
smoothSolver:  Solving for k, Initial residual = 0.00163722, Final residual = 1.9419e-07, No Iterations 4
ExecutionTime = 26.38 s  ClockTime = 26 s

Courant Number mean: 0.138436 max: 0.915763
Interface Courant Number mean: 0.00657469 max: 0.375836
deltaT = 0.000993202
Time = 0.492054

smoothSolver:  Solving for alpha.water, Initial residual = 0.00227776, Final residual = 3.59825e-10, No Iterations 3
Phase-1 volume fraction = 0.124769  Min(alpha.water) = -5.41652e-08  Max(alpha.water) = 1
MULES: Correcting alpha.water
MULES: Correcting alpha.water
Phase-1 volume fraction = 0.124769  Min(alpha.water) = -1.88868e-05  Max(alpha.water) = 1.00001
DICPCG:  Solving for p_rgh, Initial residual = 0.0258746, Final residual = 0.00111149, No Iterations 2
time step continuity errors : sum local = 0.000157497, global = -2.21848e-08, cumulative = 9.56607e-05
DICPCG:  Solving for p_rgh, Initial residual = 0.00133719, Final residual = 6.26911e-05, No Iterations 9
time step continuity errors : sum local = 8.84562e-06, global = 3.67641e-07, cumulative = 9.60283e-05
DICPCG:  Solving for p_rgh, Initial residual = 0.000329976, Final residual = 9.1949e-08, No Iterations 146
time step continuity errors : sum local = 1.29665e-08, global = 3.07267e-10, cumulative = 9.60287e-05
smoothSolver:  Solving for epsilon, Initial residual = 0.00120486, Final residual = 1.17882e-07, No Iterations 3
smoothSolver:  Solving for k, Initial residual = 0.00162375, Final residual = 1.91612e-07, No Iterations 4
ExecutionTime = 26.43 s  ClockTime = 27 s

Courant Number mean: 0.13808 max: 0.911634
Interface Courant Number mean: 0.00657319 max: 0.365955
deltaT = 0.000993202
Time = 0.493048

smoothSolver:  Solving for alpha.water, Initial residual = 0.0022702, Final residual = 3.52379e-10, No Iterations 3
Phase-1 volume fraction = 0.124769  Min(alpha.water) = -4.65138e-08  Max(alpha.water) = 1
MULES: Correcting alpha.water
MULES: Correcting alpha.water
Phase-1 volume fraction = 0.124769  Min(alpha.water) = -1.32815e-05  Max(alpha.water) = 1.00001
DICPCG:  Solving for p_rgh, Initial residual = 0.0258685, Final residual = 0.00110029, No Iterations 2
time step continuity errors : sum local = 0.00015728, global = 2.07901e-08, cumulative = 9.60494e-05
DICPCG:  Solving for p_rgh, Initial residual = 0.00132397, Final residual = 6.49814e-05, No Iterations 9
time step continuity errors : sum local = 9.24931e-06, global = 5.25478e-07, cumulative = 9.65749e-05
DICPCG:  Solving for p_rgh, Initial residual = 0.000323141, Final residual = 8.97591e-08, No Iterations 146
time step continuity errors : sum local = 1.27682e-08, global = 3.63808e-10, cumulative = 9.65753e-05
smoothSolver:  Solving for epsilon, Initial residual = 0.00116615, Final residual = 1.18584e-07, No Iterations 3
smoothSolver:  Solving for k, Initial residual = 0.00160597, Final residual = 1.89103e-07, No Iterations 4
ExecutionTime = 26.48 s  ClockTime = 27 s

Courant Number mean: 0.137716 max: 0.904329
Interface Courant Number mean: 0.00644501 max: 0.358912
deltaT = 0.000993202
Time = 0.494041

smoothSolver:  Solving for alpha.water, Initial residual = 0.00226844, Final residual = 3.56266e-10, No Iterations 3
Phase-1 volume fraction = 0.124769  Min(alpha.water) = -2.37352e-08  Max(alpha.water) = 1
MULES: Correcting alpha.water
MULES: Correcting alpha.water
Phase-1 volume fraction = 0.124769  Min(alpha.water) = -1.03711e-05  Max(alpha.water) = 1.00001
DICPCG:  Solving for p_rgh, Initial residual = 0.0258491, Final residual = 0.00107251, No Iterations 2
time step continuity errors : sum local = 0.000154606, global = -7.45366e-08, cumulative = 9.65007e-05
DICPCG:  Solving for p_rgh, Initial residual = 0.00130075, Final residual = 5.67181e-05, No Iterations 9
time step continuity errors : sum local = 8.14128e-06, global = 2.99142e-07, cumulative = 9.67999e-05
DICPCG:  Solving for p_rgh, Initial residual = 0.000316846, Final residual = 9.66994e-08, No Iterations 145
time step continuity errors : sum local = 1.38719e-08, global = 3.02909e-10, cumulative = 9.68002e-05
smoothSolver:  Solving for epsilon, Initial residual = 0.00113103, Final residual = 1.19318e-07, No Iterations 3
smoothSolver:  Solving for k, Initial residual = 0.00159055, Final residual = 1.866e-07, No Iterations 4
ExecutionTime = 26.53 s  ClockTime = 27 s

Courant Number mean: 0.137382 max: 0.893424
Interface Courant Number mean: 0.00638332 max: 0.404791
deltaT = 0.000993202
Time = 0.495034

smoothSolver:  Solving for alpha.water, Initial residual = 0.00226393, Final residual = 3.58064e-10, No Iterations 3
Phase-1 volume fraction = 0.124769  Min(alpha.water) = -2.28725e-08  Max(alpha.water) = 1
MULES: Correcting alpha.water
MULES: Correcting alpha.water
Phase-1 volume fraction = 0.124769  Min(alpha.water) = -7.87822e-06  Max(alpha.water) = 1
DICPCG:  Solving for p_rgh, Initial residual = 0.0257, Final residual = 0.00108445, No Iterations 2
time step continuity errors : sum local = 0.000157018, global = 2.33609e-08, cumulative = 9.68236e-05
DICPCG:  Solving for p_rgh, Initial residual = 0.00131388, Final residual = 5.82854e-05, No Iterations 9
time step continuity errors : sum local = 8.40191e-06, global = 3.86278e-07, cumulative = 9.72098e-05
DICPCG:  Solving for p_rgh, Initial residual = 0.000315645, Final residual = 9.38558e-08, No Iterations 143
time step continuity errors : sum local = 1.35211e-08, global = 2.79775e-10, cumulative = 9.72101e-05
smoothSolver:  Solving for epsilon, Initial residual = 0.00110184, Final residual = 1.19937e-07, No Iterations 3
smoothSolver:  Solving for k, Initial residual = 0.00158103, Final residual = 1.84166e-07, No Iterations 4
ExecutionTime = 26.59 s  ClockTime = 27 s

Courant Number mean: 0.137066 max: 0.891172
Interface Courant Number mean: 0.00647089 max: 0.395505
deltaT = 0.000993202
Time = 0.496027

smoothSolver:  Solving for alpha.water, Initial residual = 0.00225729, Final residual = 3.55166e-10, No Iterations 3
Phase-1 volume fraction = 0.124769  Min(alpha.water) = -2.26354e-08  Max(alpha.water) = 1
MULES: Correcting alpha.water
MULES: Correcting alpha.water
Phase-1 volume fraction = 0.124769  Min(alpha.water) = -9.48382e-06  Max(alpha.water) = 1
DICPCG:  Solving for p_rgh, Initial residual = 0.0255243, Final residual = 0.00105756, No Iterations 2
time step continuity errors : sum local = 0.000154458, global = -6.22013e-09, cumulative = 9.72039e-05
DICPCG:  Solving for p_rgh, Initial residual = 0.00128108, Final residual = 5.51801e-05, No Iterations 9
time step continuity errors : sum local = 8.03779e-06, global = 4.05232e-07, cumulative = 9.76091e-05
DICPCG:  Solving for p_rgh, Initial residual = 0.00030867, Final residual = 8.61438e-08, No Iterations 143
time step continuity errors : sum local = 1.25413e-08, global = 1.03958e-10, cumulative = 9.76092e-05
smoothSolver:  Solving for epsilon, Initial residual = 0.00107746, Final residual = 1.21147e-07, No Iterations 3
smoothSolver:  Solving for k, Initial residual = 0.00156755, Final residual = 1.81802e-07, No Iterations 4
ExecutionTime = 26.63 s  ClockTime = 27 s

Courant Number mean: 0.136759 max: 0.88693
Interface Courant Number mean: 0.0064333 max: 0.385896
deltaT = 0.000993202
Time = 0.49702

smoothSolver:  Solving for alpha.water, Initial residual = 0.00224798, Final residual = 3.5665e-10, No Iterations 3
Phase-1 volume fraction = 0.124769  Min(alpha.water) = -2.23951e-08  Max(alpha.water) = 1
MULES: Correcting alpha.water
MULES: Correcting alpha.water
Phase-1 volume fraction = 0.124769  Min(alpha.water) = -1.2723e-05  Max(alpha.water) = 1
DICPCG:  Solving for p_rgh, Initial residual = 0.0248956, Final residual = 0.0010572, No Iterations 2
time step continuity errors : sum local = 0.000156853, global = -2.43639e-08, cumulative = 9.75849e-05
DICPCG:  Solving for p_rgh, Initial residual = 0.00128127, Final residual = 5.53756e-05, No Iterations 9
time step continuity errors : sum local = 8.19315e-06, global = 3.29212e-07, cumulative = 9.79141e-05
DICPCG:  Solving for p_rgh, Initial residual = 0.000307391, Final residual = 9.05247e-08, No Iterations 142
time step continuity errors : sum local = 1.3386e-08, global = -2.89226e-10, cumulative = 9.79138e-05
smoothSolver:  Solving for epsilon, Initial residual = 0.00105292, Final residual = 1.2223e-07, No Iterations 3
smoothSolver:  Solving for k, Initial residual = 0.00155643, Final residual = 1.7936e-07, No Iterations 4
ExecutionTime = 26.68 s  ClockTime = 27 s

Courant Number mean: 0.136471 max: 0.879306
Interface Courant Number mean: 0.00647714 max: 0.375624
deltaT = 0.000993202
Time = 0.498014

smoothSolver:  Solving for alpha.water, Initial residual = 0.0022405, Final residual = 3.52892e-10, No Iterations 3
Phase-1 volume fraction = 0.124769  Min(alpha.water) = -2.21519e-08  Max(alpha.water) = 1
MULES: Correcting alpha.water
MULES: Correcting alpha.water
Phase-1 volume fraction = 0.124769  Min(alpha.water) = -5.17706e-06  Max(alpha.water) = 1
DICPCG:  Solving for p_rgh, Initial residual = 0.0240572, Final residual = 0.00100114, No Iterations 2
time step continuity errors : sum local = 0.000151026, global = 4.54352e-08, cumulative = 9.79592e-05
DICPCG:  Solving for p_rgh, Initial residual = 0.00121598, Final residual = 4.98992e-05, No Iterations 9
time step continuity errors : sum local = 7.50508e-06, global = 3.3869e-07, cumulative = 9.82979e-05
DICPCG:  Solving for p_rgh, Initial residual = 0.00028835, Final residual = 8.16647e-08, No Iterations 143
time step continuity errors : sum local = 1.2276e-08, global = 2.14087e-10, cumulative = 9.82981e-05
smoothSolver:  Solving for epsilon, Initial residual = 0.0010298, Final residual = 1.23353e-07, No Iterations 3
smoothSolver:  Solving for k, Initial residual = 0.00154667, Final residual = 1.76975e-07, No Iterations 4
ExecutionTime = 26.73 s  ClockTime = 27 s

Courant Number mean: 0.136191 max: 0.869482
Interface Courant Number mean: 0.00642637 max: 0.364721
deltaT = 0.000993202
Time = 0.499007

smoothSolver:  Solving for alpha.water, Initial residual = 0.00223113, Final residual = 3.50022e-10, No Iterations 3
Phase-1 volume fraction = 0.124769  Min(alpha.water) = -2.19064e-08  Max(alpha.water) = 1
MULES: Correcting alpha.water
MULES: Correcting alpha.water
Phase-1 volume fraction = 0.124769  Min(alpha.water) = -4.71021e-06  Max(alpha.water) = 1
DICPCG:  Solving for p_rgh, Initial residual = 0.0234914, Final residual = 0.000951642, No Iterations 2
time step continuity errors : sum local = 0.000144996, global = 4.4388e-08, cumulative = 9.83425e-05
DICPCG:  Solving for p_rgh, Initial residual = 0.00114774, Final residual = 4.84969e-05, No Iterations 9
time step continuity errors : sum local = 7.38176e-06, global = 3.72861e-07, cumulative = 9.87154e-05
DICPCG:  Solving for p_rgh, Initial residual = 0.00027469, Final residual = 8.87927e-08, No Iterations 134
time step continuity errors : sum local = 1.35075e-08, global = -5.05845e-11, cumulative = 9.87153e-05
smoothSolver:  Solving for epsilon, Initial residual = 0.00100807, Final residual = 1.24866e-07, No Iterations 3
smoothSolver:  Solving for k, Initial residual = 0.00153334, Final residual = 1.74624e-07, No Iterations 4
ExecutionTime = 26.78 s  ClockTime = 27 s

Courant Number mean: 0.135927 max: 0.86805
Interface Courant Number mean: 0.00633594 max: 0.353397
deltaT = 0.000993202
Time = 0.5

smoothSolver:  Solving for alpha.water, Initial residual = 0.00222435, Final residual = 3.5042e-10, No Iterations 3
Phase-1 volume fraction = 0.124769  Min(alpha.water) = -2.16586e-08  Max(alpha.water) = 1
MULES: Correcting alpha.water
MULES: Correcting alpha.water
Phase-1 volume fraction = 0.124769  Min(alpha.water) = -4.51271e-06  Max(alpha.water) = 1
DICPCG:  Solving for p_rgh, Initial residual = 0.0222221, Final residual = 0.000917955, No Iterations 2
time step continuity errors : sum local = 0.000141327, global = 2.35146e-08, cumulative = 9.87388e-05
DICPCG:  Solving for p_rgh, Initial residual = 0.0010968, Final residual = 5.19581e-05, No Iterations 9
time step continuity errors : sum local = 7.98043e-06, global = 3.71787e-07, cumulative = 9.91106e-05
DICPCG:  Solving for p_rgh, Initial residual = 0.000263519, Final residual = 9.90194e-08, No Iterations 142
time step continuity errors : sum local = 1.52019e-08, global = 9.04738e-11, cumulative = 9.91107e-05
smoothSolver:  Solving for epsilon, Initial residual = 0.000988749, Final residual = 1.26411e-07, No Iterations 3
smoothSolver:  Solving for k, Initial residual = 0.00152116, Final residual = 1.7233e-07, No Iterations 4
ExecutionTime = 26.88 s  ClockTime = 27 s

End

